# generated using pymatgen
data_AgH12(C3N)6
_symmetry_space_group_name_H-M   'P 1'
_cell_length_a   13.82179720
_cell_length_b   13.82179720
_cell_length_c   24.59568680
_cell_angle_alpha   102.11017651
_cell_angle_beta   101.66231362
_cell_angle_gamma   105.48386314
_symmetry_Int_Tables_number   1
_chemical_formula_structural   AgH12(C3N)6
_chemical_formula_sum   'Ag8 H96 C144 N48'
_cell_volume   4258.09492006
_cell_formula_units_Z   8
loop_
 _symmetry_equiv_pos_site_id
 _symmetry_equiv_pos_as_xyz
  1  'x, y, z'
loop_
 _atom_site_type_symbol
 _atom_site_label
 _atom_site_symmetry_multiplicity
 _atom_site_fract_x
 _atom_site_fract_y
 _atom_site_fract_z
 _atom_site_occupancy
  Ag  Ag0  1  0.19910000  0.52073000  0.63317000  1
  Ag  Ag1  1  0.11244000  0.93407000  0.13317000  1
  Ag  Ag2  1  0.43445000  0.71143000  0.63356000  1
  Ag  Ag3  1  0.92213000  0.69911000  0.13356000  1
  Ag  Ag4  1  0.56555000  0.28857000  0.36644000  1
  Ag  Ag5  1  0.07787000  0.30089000  0.86644000  1
  Ag  Ag6  1  0.80090000  0.47927000  0.36683000  1
  Ag  Ag7  1  0.88756000  0.06593000  0.86683000  1
  C  C8  1  0.42920000  0.33160000  0.90540000  1
  C  C9  1  0.57380000  0.97620000  0.40540000  1
  C  C10  1  0.38870000  0.37590000  0.99460000  1
  C  C11  1  0.61870000  0.10590000  0.49460000  1
  C  C12  1  0.19150000  0.13750000  0.99760000  1
  C  C13  1  0.86010000  0.30610000  0.49760000  1
  C  C14  1  0.17520000  0.73880000  0.61780000  1
  C  C15  1  0.87900000  0.94260000  0.11780000  1
  C  C16  1  0.22230000  0.06610000  0.90900000  1
  C  C17  1  0.84290000  0.18670000  0.40900000  1
  C  C18  1  0.15930000  0.62620000  0.53250000  1
  C  C19  1  0.90630000  0.87320000  0.03250000  1
  C  C20  1  0.46050000  0.35930000  0.96500000  1
  C  C21  1  0.60570000  0.00450000  0.46500000  1
  C  C22  1  0.40060000  0.82610000  0.53710000  1
  C  C23  1  0.71100000  0.63650000  0.03710000  1
  C  C24  1  0.44050000  0.95030000  0.62220000  1
  C  C25  1  0.67190000  0.68170000  0.12220000  1
  C  C26  1  0.25950000  0.10810000  0.96800000  1
  C  C27  1  0.85990000  0.20850000  0.46800000  1
  C  C28  1  0.56920000  0.37310000  0.99910000  1
  C  C29  1  0.62600000  0.92990000  0.49910000  1
  C  C30  1  0.36770000  0.12120000  0.00030000  1
  C  C31  1  0.87910000  0.13260000  0.50030000  1
  C  C32  1  0.38230000  0.79520000  0.75790000  1
  C  C33  1  0.96270000  0.87560000  0.25790000  1
  C  C34  1  0.21560000  0.89270000  0.02710000  1
  C  C35  1  0.13440000  0.31150000  0.52710000  1
  C  C36  1  0.63460000  0.45600000  0.17900000  1
  C  C37  1  0.72300000  0.04440000  0.67900000  1
  C  C38  1  0.67780000  0.90420000  0.58620000  1
  C  C39  1  0.68200000  0.40840000  0.08620000  1
  C  C40  1  0.62910000  0.77100000  0.50530000  1
  C  C41  1  0.73430000  0.37620000  0.00530000  1
  C  C42  1  0.57660000  0.62110000  0.41710000  1
  C  C43  1  0.79600000  0.34050000  0.91710000  1
  C  C44  1  0.37390000  0.50930000  0.52180000  1
  C  C45  1  0.01250000  0.64790000  0.02180000  1
  C  C46  1  0.19920000  0.06990000  0.25950000  1
  C  C47  1  0.18960000  0.56030000  0.75950000  1
  C  C48  1  0.39690000  0.81830000  0.81640000  1
  C  C49  1  0.99810000  0.91950000  0.31640000  1
  C  C50  1  0.28620000  0.87750000  0.99630000  1
  C  C51  1  0.11880000  0.21010000  0.49630000  1
  C  C52  1  0.59440000  0.10050000  0.91370000  1
  C  C53  1  0.81320000  0.81930000  0.41370000  1
  C  C54  1  0.53330000  0.12650000  0.00340000  1
  C  C55  1  0.87690000  0.97010000  0.50340000  1
  C  C56  1  0.48430000  0.15130000  0.08580000  1
  C  C57  1  0.93450000  0.10150000  0.58580000  1
  C  C58  1  0.65820000  0.47390000  0.23850000  1
  C  C59  1  0.76460000  0.08030000  0.73850000  1
  C  C60  1  0.70350000  0.42990000  0.15060000  1
  C  C61  1  0.72070000  0.94710000  0.65060000  1
  C  C62  1  0.61260000  0.66020000  0.47580000  1
  C  C63  1  0.81560000  0.36320000  0.97580000  1
  C  C64  1  0.42730000  0.17510000  0.17620000  1
  C  C65  1  0.00110000  0.24890000  0.67620000  1
  C  C66  1  0.56750000  0.51790000  0.39080000  1
  C  C67  1  0.87290000  0.32330000  0.89080000  1
  C  C68  1  0.23880000  0.11240000  0.31820000  1
  C  C69  1  0.20580000  0.57940000  0.81820000  1
  C  C70  1  0.36150000  0.40720000  0.49170000  1
  C  C71  1  0.08450000  0.63020000  0.99170000  1
  C  C72  1  0.61400000  0.11660000  0.97300000  1
  C  C73  1  0.85640000  0.85900000  0.47300000  1
  C  C74  1  0.67110000  0.08770000  0.88740000  1
  C  C75  1  0.79970000  0.71630000  0.38740000  1
  C  C76  1  0.50600000  0.17010000  0.14950000  1
  C  C77  1  0.97940000  0.14350000  0.64950000  1
  C  C78  1  0.45000000  0.19540000  0.23500000  1
  C  C79  1  0.03960000  0.28500000  0.73500000  1
  C  C80  1  0.55000000  0.80460000  0.76500000  1
  C  C81  1  0.96040000  0.71500000  0.26500000  1
  C  C82  1  0.49400000  0.82990000  0.85050000  1
  C  C83  1  0.02060000  0.85650000  0.35050000  1
  C  C84  1  0.32890000  0.91230000  0.11260000  1
  C  C85  1  0.20030000  0.28370000  0.61260000  1
  C  C86  1  0.38600000  0.88340000  0.02700000  1
  C  C87  1  0.14360000  0.14100000  0.52700000  1
  C  C88  1  0.63850000  0.59280000  0.50830000  1
  C  C89  1  0.91550000  0.36980000  0.00830000  1
  C  C90  1  0.76120000  0.88760000  0.68180000  1
  C  C91  1  0.79420000  0.42060000  0.18180000  1
  C  C92  1  0.43250000  0.48210000  0.60920000  1
  C  C93  1  0.12710000  0.67670000  0.10920000  1
  C  C94  1  0.57270000  0.82490000  0.82380000  1
  C  C95  1  0.99890000  0.75110000  0.32380000  1
  C  C96  1  0.38740000  0.33980000  0.52420000  1
  C  C97  1  0.18440000  0.63680000  0.02420000  1
  C  C98  1  0.29650000  0.57010000  0.84940000  1
  C  C99  1  0.27930000  0.05290000  0.34940000  1
  C  C100  1  0.34180000  0.52610000  0.76150000  1
  C  C101  1  0.23540000  0.91970000  0.26150000  1
  C  C102  1  0.51570000  0.84870000  0.91420000  1
  C  C103  1  0.06550000  0.89850000  0.41420000  1
  C  C104  1  0.46670000  0.87350000  0.99660000  1
  C  C105  1  0.12310000  0.02990000  0.49660000  1
  C  C106  1  0.40560000  0.89950000  0.08630000  1
  C  C107  1  0.18680000  0.18070000  0.58630000  1
  C  C108  1  0.71380000  0.12250000  0.00370000  1
  C  C109  1  0.88120000  0.78990000  0.50370000  1
  C  C110  1  0.60310000  0.18170000  0.18360000  1
  C  C111  1  0.00190000  0.08050000  0.68360000  1
  C  C112  1  0.80080000  0.93010000  0.74050000  1
  C  C113  1  0.81040000  0.43970000  0.24050000  1
  C  C114  1  0.62610000  0.49070000  0.47820000  1
  C  C115  1  0.98750000  0.35210000  0.97820000  1
  C  C116  1  0.42340000  0.37890000  0.58290000  1
  C  C117  1  0.20400000  0.65950000  0.08290000  1
  C  C118  1  0.37090000  0.22900000  0.49470000  1
  C  C119  1  0.26570000  0.62380000  0.99470000  1
  C  C120  1  0.32220000  0.09580000  0.41380000  1
  C  C121  1  0.31800000  0.59160000  0.91380000  1
  C  C122  1  0.36540000  0.54400000  0.82100000  1
  C  C123  1  0.27700000  0.95560000  0.32100000  1
  C  C124  1  0.78440000  0.10730000  0.97290000  1
  C  C125  1  0.86560000  0.68850000  0.47290000  1
  C  C126  1  0.61770000  0.20480000  0.24210000  1
  C  C127  1  0.03730000  0.12440000  0.74210000  1
  C  C128  1  0.63230000  0.87880000  0.99970000  1
  C  C129  1  0.12090000  0.86740000  0.49970000  1
  C  C130  1  0.43080000  0.62690000  0.00090000  1
  C  C131  1  0.37400000  0.07010000  0.50090000  1
  C  C132  1  0.74050000  0.89190000  0.03200000  1
  C  C133  1  0.14010000  0.79150000  0.53200000  1
  C  C134  1  0.55950000  0.04970000  0.37780000  1
  C  C135  1  0.32810000  0.31830000  0.87780000  1
  C  C136  1  0.59940000  0.17390000  0.46290000  1
  C  C137  1  0.28900000  0.36350000  0.96290000  1
  C  C138  1  0.53950000  0.64070000  0.03500000  1
  C  C139  1  0.39430000  0.99550000  0.53500000  1
  C  C140  1  0.84070000  0.37380000  0.46750000  1
  C  C141  1  0.09370000  0.12680000  0.96750000  1
  C  C142  1  0.77770000  0.93390000  0.09100000  1
  C  C143  1  0.15710000  0.81330000  0.59100000  1
  C  C144  1  0.82480000  0.26120000  0.38220000  1
  C  C145  1  0.12100000  0.05740000  0.88220000  1
  C  C146  1  0.80850000  0.86250000  0.00240000  1
  C  C147  1  0.13990000  0.69390000  0.50240000  1
  C  C148  1  0.61130000  0.62410000  0.00540000  1
  C  C149  1  0.38130000  0.89410000  0.50540000  1
  C  C150  1  0.57080000  0.66840000  0.09460000  1
  C  C151  1  0.42620000  0.02380000  0.59460000  1
  H  H152  1  0.47630000  0.32210000  0.88420000  1
  H  H153  1  0.56210000  0.90790000  0.38420000  1
  H  H154  1  0.40690000  0.39470000  0.03480000  1
  H  H155  1  0.64010000  0.12790000  0.53480000  1
  H  H156  1  0.21280000  0.16400000  0.03760000  1
  H  H157  1  0.87360000  0.32480000  0.53760000  1
  H  H158  1  0.18500000  0.75380000  0.65760000  1
  H  H159  1  0.90380000  0.97260000  0.15760000  1
  H  H160  1  0.26440000  0.04400000  0.88760000  1
  H  H161  1  0.84360000  0.12320000  0.38760000  1
  H  H162  1  0.15880000  0.56140000  0.51200000  1
  H  H163  1  0.95060000  0.85320000  0.01200000  1
  H  H164  1  0.39230000  0.75830000  0.51680000  1
  H  H165  1  0.75850000  0.62450000  0.01680000  1
  H  H166  1  0.45810000  0.96950000  0.66240000  1
  H  H167  1  0.69290000  0.70430000  0.16240000  1
  H  H168  1  0.15050000  0.89110000  0.00660000  1
  H  H169  1  0.31600000  0.78520000  0.73520000  1
  H  H170  1  0.95000000  0.91920000  0.23520000  1
  H  H171  1  0.11550000  0.35610000  0.50660000  1
  H  H172  1  0.57280000  0.46190000  0.15870000  1
  H  H173  1  0.69680000  0.08590000  0.65870000  1
  H  H174  1  0.55810000  0.66310000  0.39460000  1
  H  H175  1  0.73150000  0.33650000  0.89460000  1
  H  H176  1  0.17280000  0.11030000  0.23850000  1
  H  H177  1  0.12820000  0.56570000  0.73850000  1
  H  H178  1  0.35770000  0.55400000  0.50070000  1
  H  H179  1  0.94670000  0.64300000  0.00070000  1
  H  H180  1  0.53020000  0.09830000  0.89190000  1
  H  H181  1  0.79360000  0.86170000  0.39190000  1
  H  H182  1  0.36030000  0.16490000  0.15440000  1
  H  H183  1  0.98950000  0.29410000  0.65440000  1
  H  H184  1  0.34330000  0.82600000  0.83270000  1
  H  H185  1  0.00670000  0.98940000  0.33270000  1
  H  H186  1  0.26800000  0.86370000  0.95630000  1
  H  H187  1  0.09260000  0.18830000  0.45630000  1
  H  H188  1  0.61140000  0.49260000  0.25760000  1
  H  H189  1  0.76500000  0.14620000  0.75760000  1
  H  H190  1  0.23840000  0.17840000  0.33620000  1
  H  H191  1  0.15780000  0.59780000  0.83620000  1
  H  H192  1  0.54300000  0.49300000  0.35080000  1
  H  H193  1  0.85780000  0.30780000  0.85080000  1
  H  H194  1  0.33700000  0.38410000  0.45150000  1
  H  H195  1  0.06740000  0.61450000  0.95150000  1
  H  H196  1  0.65650000  0.07650000  0.84760000  1
  H  H197  1  0.77110000  0.69110000  0.34760000  1
  H  H198  1  0.39620000  0.19620000  0.25240000  1
  H  H199  1  0.05620000  0.35620000  0.75240000  1
  H  H200  1  0.60380000  0.80380000  0.74760000  1
  H  H201  1  0.94380000  0.64380000  0.24760000  1
  H  H202  1  0.34350000  0.92350000  0.15240000  1
  H  H203  1  0.22890000  0.30890000  0.65240000  1
  H  H204  1  0.66300000  0.61590000  0.54850000  1
  H  H205  1  0.93260000  0.38550000  0.04850000  1
  H  H206  1  0.45700000  0.50700000  0.64920000  1
  H  H207  1  0.14220000  0.69220000  0.14920000  1
  H  H208  1  0.76160000  0.82160000  0.66380000  1
  H  H209  1  0.84220000  0.40220000  0.16380000  1
  H  H210  1  0.38860000  0.50740000  0.74240000  1
  H  H211  1  0.23500000  0.85380000  0.24240000  1
  H  H212  1  0.73200000  0.13630000  0.04370000  1
  H  H213  1  0.90740000  0.81170000  0.54370000  1
  H  H214  1  0.65670000  0.17400000  0.16730000  1
  H  H215  1  0.99330000  0.01060000  0.66730000  1
  H  H216  1  0.63970000  0.83510000  0.84560000  1
  H  H217  1  0.01050000  0.70590000  0.34560000  1
  H  H218  1  0.46980000  0.90170000  0.10810000  1
  H  H219  1  0.20640000  0.13830000  0.60810000  1
  H  H220  1  0.64230000  0.44600000  0.49930000  1
  H  H221  1  0.05330000  0.35700000  0.99930000  1
  H  H222  1  0.82720000  0.88970000  0.76150000  1
  H  H223  1  0.87180000  0.43430000  0.26150000  1
  H  H224  1  0.44190000  0.33690000  0.60540000  1
  H  H225  1  0.26850000  0.66350000  0.10540000  1
  H  H226  1  0.42720000  0.53810000  0.84130000  1
  H  H227  1  0.30320000  0.91410000  0.34130000  1
  H  H228  1  0.68400000  0.21480000  0.26480000  1
  H  H229  1  0.84950000  0.10890000  0.99340000  1
  H  H230  1  0.88450000  0.64390000  0.49340000  1
  H  H231  1  0.05000000  0.08080000  0.76480000  1
  H  H232  1  0.54190000  0.03050000  0.33760000  1
  H  H233  1  0.30710000  0.29570000  0.83760000  1
  H  H234  1  0.60770000  0.24170000  0.48320000  1
  H  H235  1  0.24150000  0.37550000  0.98320000  1
  H  H236  1  0.84120000  0.43860000  0.48800000  1
  H  H237  1  0.04940000  0.14680000  0.98800000  1
  H  H238  1  0.73560000  0.95600000  0.11240000  1
  H  H239  1  0.15640000  0.87680000  0.61240000  1
  H  H240  1  0.81500000  0.24620000  0.34240000  1
  H  H241  1  0.09620000  0.02740000  0.84240000  1
  H  H242  1  0.78720000  0.83600000  0.96240000  1
  H  H243  1  0.12640000  0.67520000  0.46240000  1
  H  H244  1  0.59310000  0.60530000  0.96520000  1
  H  H245  1  0.35990000  0.87210000  0.46520000  1
  H  H246  1  0.52370000  0.67790000  0.11580000  1
  H  H247  1  0.43790000  0.09210000  0.61580000  1
  N  N248  1  0.17930000  0.64730000  0.59000000  1
  N  N249  1  0.94270000  0.91070000  0.09000000  1
  N  N250  1  0.43030000  0.85150000  0.59440000  1
  N  N251  1  0.74290000  0.66410000  0.09440000  1
  N  N252  1  0.58600000  0.39690000  0.05690000  1
  N  N253  1  0.66000000  0.97090000  0.55690000  1
  N  N254  1  0.61260000  0.83340000  0.47180000  1
  N  N255  1  0.63840000  0.35920000  0.97180000  1
  N  N256  1  0.43770000  0.11290000  0.97080000  1
  N  N257  1  0.85790000  0.03310000  0.47080000  1
  N  N258  1  0.38650000  0.13890000  0.05740000  1
  N  N259  1  0.91850000  0.17090000  0.55740000  1
  N  N260  1  0.45360000  0.78580000  0.73100000  1
  N  N261  1  0.94520000  0.77740000  0.23100000  1
  N  N262  1  0.23450000  0.90920000  0.08370000  1
  N  N263  1  0.17450000  0.34920000  0.58370000  1
  N  N264  1  0.66190000  0.80320000  0.56310000  1
  N  N265  1  0.75990000  0.40120000  0.06310000  1
  N  N266  1  0.40790000  0.54590000  0.57940000  1
  N  N267  1  0.03350000  0.67150000  0.07940000  1
  N  N268  1  0.25470000  0.53470000  0.73020000  1
  N  N269  1  0.19550000  0.97550000  0.23020000  1
  N  N270  1  0.56010000  0.14600000  0.06090000  1
  N  N271  1  0.91490000  0.00080000  0.56090000  1
  N  N272  1  0.43990000  0.85400000  0.93910000  1
  N  N273  1  0.08510000  0.99920000  0.43910000  1
  N  N274  1  0.74530000  0.46530000  0.26980000  1
  N  N275  1  0.80450000  0.02450000  0.76980000  1
  N  N276  1  0.59210000  0.45410000  0.42060000  1
  N  N277  1  0.96650000  0.32850000  0.92060000  1
  N  N278  1  0.33810000  0.19680000  0.43690000  1
  N  N279  1  0.24010000  0.59880000  0.93690000  1
  N  N280  1  0.76550000  0.09080000  0.91630000  1
  N  N281  1  0.82550000  0.65080000  0.41630000  1
  N  N282  1  0.54640000  0.21420000  0.26900000  1
  N  N283  1  0.05480000  0.22260000  0.76900000  1
  N  N284  1  0.61350000  0.86110000  0.94260000  1
  N  N285  1  0.08150000  0.82910000  0.44260000  1
  N  N286  1  0.56230000  0.88710000  0.02920000  1
  N  N287  1  0.14210000  0.96690000  0.52920000  1
  N  N288  1  0.38740000  0.16660000  0.52820000  1
  N  N289  1  0.36160000  0.64080000  0.02820000  1
  N  N290  1  0.41400000  0.60310000  0.94310000  1
  N  N291  1  0.34000000  0.02910000  0.44310000  1
  N  N292  1  0.56970000  0.14850000  0.40560000  1
  N  N293  1  0.25710000  0.33590000  0.90560000  1
  N  N294  1  0.82070000  0.35270000  0.41000000  1
  N  N295  1  0.05730000  0.08930000  0.91000000  1
