# generated using pymatgen
data_Zn2Cu3H30(C3N2)10
_symmetry_space_group_name_H-M   'P 1'
_cell_length_a   11.94600000
_cell_length_b   13.30200000
_cell_length_c   17.77700000
_cell_angle_alpha   90.00000000
_cell_angle_beta   98.35000000
_cell_angle_gamma   90.00000000
_symmetry_Int_Tables_number   1
_chemical_formula_structural   Zn2Cu3H30(C3N2)10
_chemical_formula_sum   'Zn4 Cu6 H60 C60 N40'
_cell_volume   2794.92131365
_cell_formula_units_Z   2
loop_
 _symmetry_equiv_pos_site_id
 _symmetry_equiv_pos_as_xyz
  1  'x, y, z'
loop_
 _atom_site_type_symbol
 _atom_site_label
 _atom_site_symmetry_multiplicity
 _atom_site_fract_x
 _atom_site_fract_y
 _atom_site_fract_z
 _atom_site_occupancy
  Zn  Zn0  1  0.17246000  0.95915000  0.70304000  1
  Zn  Zn1  1  0.32754000  0.45915000  0.79696000  1
  Zn  Zn2  1  0.67246000  0.54085000  0.20304000  1
  Zn  Zn3  1  0.82754000  0.04085000  0.29696000  1
  Cu  Cu4  1  0.00000000  0.00000000  0.00000000  1
  Cu  Cu5  1  0.04136000  0.67703000  0.44284000  1
  Cu  Cu6  1  0.45864000  0.17703000  0.05716000  1
  Cu  Cu7  1  0.50000000  0.50000000  0.50000000  1
  Cu  Cu8  1  0.54136000  0.82297000  0.94284000  1
  Cu  Cu9  1  0.95864000  0.32297000  0.55716000  1
  H  H10  1  0.03190000  0.15040000  0.67210000  1
  H  H11  1  0.06830000  0.52590000  0.79420000  1
  H  H12  1  0.08250000  0.87670000  0.53800000  1
  H  H13  1  0.08470000  0.43270000  0.44930000  1
  H  H14  1  0.08610000  0.53000000  0.30130000  1
  H  H15  1  0.09480000  0.03180000  0.28340000  1
  H  H16  1  0.13400000  0.60370000  0.61430000  1
  H  H17  1  0.15890000  0.20380000  0.48870000  1
  H  H18  1  0.16000000  0.98980000  0.87510000  1
  H  H19  1  0.16770000  0.01250000  0.16410000  1
  H  H20  1  0.18550000  0.71920000  0.71870000  1
  H  H21  1  0.19610000  0.35520000  0.65090000  1
  H  H22  1  0.20090000  0.15400000  0.02200000  1
  H  H23  1  0.22480000  0.86260000  0.02220000  1
  H  H24  1  0.24610000  0.55730000  0.94980000  1
  H  H25  1  0.25390000  0.05730000  0.55020000  1
  H  H26  1  0.27520000  0.36260000  0.47780000  1
  H  H27  1  0.29910000  0.65400000  0.47800000  1
  H  H28  1  0.30390000  0.85520000  0.84910000  1
  H  H29  1  0.31450000  0.21920000  0.78130000  1
  H  H30  1  0.33230000  0.51250000  0.33590000  1
  H  H31  1  0.34000000  0.48980000  0.62490000  1
  H  H32  1  0.34110000  0.70380000  0.01130000  1
  H  H33  1  0.36600000  0.10370000  0.88570000  1
  H  H34  1  0.40520000  0.53180000  0.21660000  1
  H  H35  1  0.41390000  0.03000000  0.19870000  1
  H  H36  1  0.41530000  0.93270000  0.05070000  1
  H  H37  1  0.41750000  0.37670000  0.96200000  1
  H  H38  1  0.43170000  0.02590000  0.70580000  1
  H  H39  1  0.46810000  0.65040000  0.82790000  1
  H  H40  1  0.53190000  0.34960000  0.17210000  1
  H  H41  1  0.56830000  0.97410000  0.29420000  1
  H  H42  1  0.58250000  0.62330000  0.03800000  1
  H  H43  1  0.58470000  0.06730000  0.94930000  1
  H  H44  1  0.58610000  0.97000000  0.80130000  1
  H  H45  1  0.59480000  0.46820000  0.78340000  1
  H  H46  1  0.63400000  0.89630000  0.11430000  1
  H  H47  1  0.65890000  0.29620000  0.98870000  1
  H  H48  1  0.66000000  0.51020000  0.37510000  1
  H  H49  1  0.66770000  0.48750000  0.66410000  1
  H  H50  1  0.68550000  0.78080000  0.21870000  1
  H  H51  1  0.69610000  0.14480000  0.15090000  1
  H  H52  1  0.70090000  0.34600000  0.52200000  1
  H  H53  1  0.72480000  0.63740000  0.52220000  1
  H  H54  1  0.74610000  0.94270000  0.44980000  1
  H  H55  1  0.75390000  0.44270000  0.05020000  1
  H  H56  1  0.77520000  0.13740000  0.97780000  1
  H  H57  1  0.79910000  0.84600000  0.97800000  1
  H  H58  1  0.80390000  0.64480000  0.34910000  1
  H  H59  1  0.81450000  0.28080000  0.28130000  1
  H  H60  1  0.83230000  0.98750000  0.83590000  1
  H  H61  1  0.84000000  0.01020000  0.12490000  1
  H  H62  1  0.84110000  0.79620000  0.51130000  1
  H  H63  1  0.86600000  0.39630000  0.38570000  1
  H  H64  1  0.90520000  0.96820000  0.71660000  1
  H  H65  1  0.91390000  0.47000000  0.69870000  1
  H  H66  1  0.91530000  0.56730000  0.55070000  1
  H  H67  1  0.91750000  0.12330000  0.46200000  1
  H  H68  1  0.93170000  0.47410000  0.20580000  1
  H  H69  1  0.96810000  0.84960000  0.32790000  1
  C  C70  1  0.01030000  0.54720000  0.29960000  1
  C  C71  1  0.05080000  0.02590000  0.23590000  1
  C  C72  1  0.07580000  0.48440000  0.75310000  1
  C  C73  1  0.07640000  0.14580000  0.63350000  1
  C  C74  1  0.08610000  0.98470000  0.85040000  1
  C  C75  1  0.09160000  0.01600000  0.16980000  1
  C  C76  1  0.10260000  0.82260000  0.57040000  1
  C  C77  1  0.12980000  0.67350000  0.61130000  1
  C  C78  1  0.14380000  0.17580000  0.53410000  1
  C  C79  1  0.14450000  0.39090000  0.67490000  1
  C  C80  1  0.15140000  0.46960000  0.45840000  1
  C  C81  1  0.15890000  0.73750000  0.66880000  1
  C  C82  1  0.19710000  0.09390000  0.56830000  1
  C  C83  1  0.23070000  0.08930000  0.02580000  1
  C  C84  1  0.24270000  0.93070000  0.02570000  1
  C  C85  1  0.25730000  0.43070000  0.47430000  1
  C  C86  1  0.26930000  0.58930000  0.47420000  1
  C  C87  1  0.30290000  0.59390000  0.93170000  1
  C  C88  1  0.34110000  0.23750000  0.83120000  1
  C  C89  1  0.34860000  0.96960000  0.04160000  1
  C  C90  1  0.35550000  0.89090000  0.82510000  1
  C  C91  1  0.35620000  0.67580000  0.96590000  1
  C  C92  1  0.37020000  0.17350000  0.88870000  1
  C  C93  1  0.39740000  0.32260000  0.92960000  1
  C  C94  1  0.40840000  0.51600000  0.33020000  1
  C  C95  1  0.41390000  0.48470000  0.64960000  1
  C  C96  1  0.42360000  0.64580000  0.86650000  1
  C  C97  1  0.42420000  0.98440000  0.74690000  1
  C  C98  1  0.44920000  0.52590000  0.26410000  1
  C  C99  1  0.48970000  0.04720000  0.20040000  1
  C  C100  1  0.51030000  0.95280000  0.79960000  1
  C  C101  1  0.55080000  0.47410000  0.73590000  1
  C  C102  1  0.57580000  0.01560000  0.25310000  1
  C  C103  1  0.57640000  0.35420000  0.13350000  1
  C  C104  1  0.58610000  0.51530000  0.35040000  1
  C  C105  1  0.59160000  0.48400000  0.66980000  1
  C  C106  1  0.60260000  0.67740000  0.07040000  1
  C  C107  1  0.62980000  0.82650000  0.11130000  1
  C  C108  1  0.64380000  0.32420000  0.03410000  1
  C  C109  1  0.64450000  0.10910000  0.17490000  1
  C  C110  1  0.65140000  0.03040000  0.95840000  1
  C  C111  1  0.65890000  0.76250000  0.16880000  1
  C  C112  1  0.69710000  0.40610000  0.06830000  1
  C  C113  1  0.73070000  0.41070000  0.52580000  1
  C  C114  1  0.74270000  0.56930000  0.52570000  1
  C  C115  1  0.75730000  0.06930000  0.97430000  1
  C  C116  1  0.76930000  0.91070000  0.97420000  1
  C  C117  1  0.80290000  0.90610000  0.43170000  1
  C  C118  1  0.84110000  0.26250000  0.33120000  1
  C  C119  1  0.84860000  0.53040000  0.54160000  1
  C  C120  1  0.85550000  0.60910000  0.32510000  1
  C  C121  1  0.85620000  0.82420000  0.46590000  1
  C  C122  1  0.87020000  0.32650000  0.38870000  1
  C  C123  1  0.89740000  0.17740000  0.42960000  1
  C  C124  1  0.90840000  0.98400000  0.83020000  1
  C  C125  1  0.91390000  0.01530000  0.14960000  1
  C  C126  1  0.92360000  0.85420000  0.36650000  1
  C  C127  1  0.92420000  0.51560000  0.24690000  1
  C  C128  1  0.94920000  0.97410000  0.76410000  1
  C  C129  1  0.98970000  0.45280000  0.70040000  1
  N  N130  1  0.00260000  0.01180000  0.11200000  1
  N  N131  1  0.03300000  0.39180000  0.65060000  1
  N  N132  1  0.06300000  0.97380000  0.77670000  1
  N  N133  1  0.06640000  0.21050000  0.57540000  1
  N  N134  1  0.09290000  0.72770000  0.54740000  1
  N  N135  1  0.14330000  0.83390000  0.64310000  1
  N  N136  1  0.15390000  0.07460000  0.63260000  1
  N  N137  1  0.15930000  0.57120000  0.45800000  1
  N  N138  1  0.16700000  0.00800000  0.01560000  1
  N  N139  1  0.17390000  0.44640000  0.73680000  1
  N  N140  1  0.32610000  0.94640000  0.76320000  1
  N  N141  1  0.33300000  0.50800000  0.48440000  1
  N  N142  1  0.34070000  0.07120000  0.04200000  1
  N  N143  1  0.34610000  0.57460000  0.86740000  1
  N  N144  1  0.35670000  0.33390000  0.85690000  1
  N  N145  1  0.40710000  0.22770000  0.95260000  1
  N  N146  1  0.43360000  0.71050000  0.92460000  1
  N  N147  1  0.43700000  0.47380000  0.72330000  1
  N  N148  1  0.46700000  0.89180000  0.84940000  1
  N  N149  1  0.49740000  0.51180000  0.38800000  1
  N  N150  1  0.50260000  0.48820000  0.61200000  1
  N  N151  1  0.53300000  0.10820000  0.15060000  1
  N  N152  1  0.56300000  0.52620000  0.27670000  1
  N  N153  1  0.56640000  0.28950000  0.07540000  1
  N  N154  1  0.59290000  0.77230000  0.04740000  1
  N  N155  1  0.64330000  0.66610000  0.14310000  1
  N  N156  1  0.65390000  0.42540000  0.13260000  1
  N  N157  1  0.65930000  0.92880000  0.95800000  1
  N  N158  1  0.66700000  0.49200000  0.51560000  1
  N  N159  1  0.67390000  0.05360000  0.23680000  1
  N  N160  1  0.82610000  0.55360000  0.26320000  1
  N  N161  1  0.83300000  0.99200000  0.98440000  1
  N  N162  1  0.84070000  0.42880000  0.54200000  1
  N  N163  1  0.84610000  0.92540000  0.36740000  1
  N  N164  1  0.85670000  0.16610000  0.35690000  1
  N  N165  1  0.90710000  0.27230000  0.45260000  1
  N  N166  1  0.93360000  0.78950000  0.42460000  1
  N  N167  1  0.93700000  0.02620000  0.22330000  1
  N  N168  1  0.96700000  0.60820000  0.34940000  1
  N  N169  1  0.99740000  0.98820000  0.88800000  1
