# generated using pymatgen
data_NaEu3C54(N6O13)2
_symmetry_space_group_name_H-M   'P 1'
_cell_length_a   21.97400000
_cell_length_b   25.72300000
_cell_length_c   31.24300000
_cell_angle_alpha   107.02400000
_cell_angle_beta   90.00000000
_cell_angle_gamma   90.00000000
_symmetry_Int_Tables_number   1
_chemical_formula_structural   NaEu3C54(N6O13)2
_chemical_formula_sum   'Na4 Eu12 C216 N48 O104'
_cell_volume   16885.89650610
_cell_formula_units_Z   4
loop_
 _symmetry_equiv_pos_site_id
 _symmetry_equiv_pos_as_xyz
  1  'x, y, z'
loop_
 _atom_site_type_symbol
 _atom_site_label
 _atom_site_symmetry_multiplicity
 _atom_site_fract_x
 _atom_site_fract_y
 _atom_site_fract_z
 _atom_site_occupancy
  Na  Na0  1  0.98559000  0.99735000  0.25152000  1
  Na  Na1  1  0.48559000  0.50265000  0.24848000  1
  Na  Na2  1  0.51441000  0.49735000  0.75152000  1
  Na  Na3  1  0.01441000  0.00265000  0.74848000  1
  Eu  Eu4  1  0.94635000  0.97960000  0.61923000  1
  Eu  Eu5  1  0.04289000  0.96458000  0.11501000  1
  Eu  Eu6  1  0.62523000  0.80727000  0.03538000  1
  Eu  Eu7  1  0.12523000  0.69273000  0.46462000  1
  Eu  Eu8  1  0.54289000  0.53542000  0.38499000  1
  Eu  Eu9  1  0.44635000  0.52040000  0.88077000  1
  Eu  Eu10  1  0.55365000  0.47960000  0.11923000  1
  Eu  Eu11  1  0.45711000  0.46458000  0.61501000  1
  Eu  Eu12  1  0.87477000  0.30727000  0.53538000  1
  Eu  Eu13  1  0.37477000  0.19273000  0.96462000  1
  Eu  Eu14  1  0.95711000  0.03542000  0.88499000  1
  Eu  Eu15  1  0.05365000  0.02040000  0.38077000  1
  C  C16  1  0.96310000  0.96040000  0.40860000  1
  C  C17  1  0.02960000  0.95560000  0.90650000  1
  C  C18  1  0.90660000  0.95470000  0.80940000  1
  C  C19  1  0.08340000  0.93170000  0.30470000  1
  C  C20  1  0.91560000  0.92830000  0.42570000  1
  C  C21  1  0.91640000  0.92640000  0.46880000  1
  C  C22  1  0.87580000  0.92040000  0.72730000  1
  C  C23  1  0.87170000  0.91590000  0.77200000  1
  C  C24  1  0.93200000  0.91570000  0.13270000  1
  C  C25  1  0.06550000  0.91270000  0.91980000  1
  C  C26  1  0.05990000  0.90930000  0.96440000  1
  C  C27  1  0.03770000  0.90870000  0.63250000  1
  C  C28  1  0.86990000  0.90120000  0.39180000  1
  C  C29  1  0.87180000  0.89680000  0.48230000  1
  C  C30  1  0.86610000  0.89630000  0.19070000  1
  C  C31  1  0.87330000  0.89470000  0.14560000  1
  C  C32  1  0.10360000  0.89410000  0.22230000  1
  C  C33  1  0.87420000  0.89120000  0.52960000  1
  C  C34  1  0.85060000  0.88690000  0.64860000  1
  C  C35  1  0.10700000  0.88600000  0.26480000  1
  C  C36  1  0.84330000  0.88450000  0.69540000  1
  C  C37  1  0.83290000  0.87750000  0.78030000  1
  C  C38  1  0.10070000  0.87680000  0.88830000  1
  C  C39  1  0.81210000  0.87670000  0.20450000  1
  C  C40  1  0.82660000  0.87330000  0.11280000  1
  C  C41  1  0.82730000  0.87040000  0.41050000  1
  C  C42  1  0.09190000  0.86880000  0.68360000  1
  C  C43  1  0.09210000  0.86870000  0.97540000  1
  C  C44  1  0.82650000  0.86780000  0.45310000  1
  C  C45  1  0.08130000  0.86680000  0.64000000  1
  C  C46  1  0.08850000  0.86490000  0.02260000  1
  C  C47  1  0.12040000  0.86090000  0.14040000  1
  C  C48  1  0.76410000  0.85650000  0.17320000  1
  C  C49  1  0.77350000  0.85430000  0.12930000  1
  C  C50  1  0.77880000  0.85330000  0.27240000  1
  C  C51  1  0.12470000  0.85080000  0.18710000  1
  C  C52  1  0.80400000  0.84530000  0.70130000  1
  C  C53  1  0.80060000  0.84180000  0.74690000  1
  C  C54  1  0.12820000  0.83980000  0.27250000  1
  C  C55  1  0.13280000  0.83650000  0.90030000  1
  C  C56  1  0.72320000  0.83480000  0.09630000  1
  C  C57  1  0.12910000  0.83230000  0.94480000  1
  C  C58  1  0.76770000  0.83140000  0.33740000  1
  C  C59  1  0.12880000  0.82830000  0.69360000  1
  C  C60  1  0.10540000  0.82490000  0.60480000  1
  C  C61  1  0.16380000  0.80390000  0.76120000  1
  C  C62  1  0.14730000  0.80270000  0.19190000  1
  C  C63  1  0.15200000  0.79780000  0.23500000  1
  C  C64  1  0.18120000  0.78820000  0.82800000  1
  C  C65  1  0.15510000  0.78800000  0.65780000  1
  C  C66  1  0.71700000  0.78720000  0.27710000  1
  C  C67  1  0.14030000  0.78610000  0.61270000  1
  C  C68  1  0.72680000  0.76500000  0.73570000  1
  C  C69  1  0.66290000  0.76060000  0.92310000  1
  C  C70  1  0.16290000  0.73940000  0.57690000  1
  C  C71  1  0.22680000  0.73500000  0.76430000  1
  C  C72  1  0.64030000  0.71390000  0.88730000  1
  C  C73  1  0.21700000  0.71280000  0.22290000  1
  C  C74  1  0.65510000  0.71200000  0.84220000  1
  C  C75  1  0.68120000  0.71180000  0.67200000  1
  C  C76  1  0.65200000  0.70220000  0.26500000  1
  C  C77  1  0.64730000  0.69730000  0.30810000  1
  C  C78  1  0.66380000  0.69610000  0.73880000  1
  C  C79  1  0.60540000  0.67510000  0.89520000  1
  C  C80  1  0.62880000  0.67170000  0.80640000  1
  C  C81  1  0.26770000  0.66860000  0.16260000  1
  C  C82  1  0.62910000  0.66770000  0.55520000  1
  C  C83  1  0.22320000  0.66520000  0.40370000  1
  C  C84  1  0.63280000  0.66350000  0.59970000  1
  C  C85  1  0.62820000  0.66020000  0.22750000  1
  C  C86  1  0.30060000  0.65820000  0.75310000  1
  C  C87  1  0.30400000  0.65470000  0.79870000  1
  C  C88  1  0.62470000  0.64920000  0.31290000  1
  C  C89  1  0.27880000  0.64670000  0.22760000  1
  C  C90  1  0.27350000  0.64570000  0.37070000  1
  C  C91  1  0.26410000  0.64350000  0.32680000  1
  C  C92  1  0.62040000  0.63910000  0.35960000  1
  C  C93  1  0.58850000  0.63510000  0.47740000  1
  C  C94  1  0.58130000  0.63320000  0.86000000  1
  C  C95  1  0.32650000  0.63220000  0.04690000  1
  C  C96  1  0.59210000  0.63130000  0.52460000  1
  C  C97  1  0.59190000  0.63120000  0.81640000  1
  C  C98  1  0.32730000  0.62960000  0.08950000  1
  C  C99  1  0.32660000  0.62670000  0.38720000  1
  C  C100  1  0.31210000  0.62330000  0.29550000  1
  C  C101  1  0.60070000  0.62320000  0.61170000  1
  C  C102  1  0.33290000  0.62250000  0.71970000  1
  C  C103  1  0.34330000  0.61550000  0.80460000  1
  C  C104  1  0.60700000  0.61400000  0.23520000  1
  C  C105  1  0.35060000  0.61310000  0.85140000  1
  C  C106  1  0.37420000  0.60880000  0.97040000  1
  C  C107  1  0.60360000  0.60590000  0.27770000  1
  C  C108  1  0.37330000  0.60530000  0.35440000  1
  C  C109  1  0.36610000  0.60370000  0.30930000  1
  C  C110  1  0.37180000  0.60320000  0.01770000  1
  C  C111  1  0.36990000  0.59880000  0.10820000  1
  C  C112  1  0.53770000  0.59130000  0.86750000  1
  C  C113  1  0.55990000  0.59070000  0.53560000  1
  C  C114  1  0.56550000  0.58730000  0.58020000  1
  C  C115  1  0.43200000  0.58430000  0.36730000  1
  C  C116  1  0.37170000  0.58410000  0.72800000  1
  C  C117  1  0.37580000  0.57960000  0.77270000  1
  C  C118  1  0.41640000  0.57360000  0.03120000  1
  C  C119  1  0.41560000  0.57170000  0.07430000  1
  C  C120  1  0.58340000  0.56830000  0.19530000  1
  C  C121  1  0.40660000  0.54530000  0.69060000  1
  C  C122  1  0.52960000  0.54440000  0.59350000  1
  C  C123  1  0.46310000  0.53960000  0.09140000  1
  C  C124  1  0.53690000  0.46040000  0.90860000  1
  C  C125  1  0.47040000  0.45560000  0.40650000  1
  C  C126  1  0.59340000  0.45470000  0.30940000  1
  C  C127  1  0.41660000  0.43170000  0.80470000  1
  C  C128  1  0.58440000  0.42830000  0.92570000  1
  C  C129  1  0.58360000  0.42640000  0.96880000  1
  C  C130  1  0.62420000  0.42040000  0.22730000  1
  C  C131  1  0.62830000  0.41590000  0.27200000  1
  C  C132  1  0.56800000  0.41570000  0.63270000  1
  C  C133  1  0.43450000  0.41270000  0.41980000  1
  C  C134  1  0.44010000  0.40930000  0.46440000  1
  C  C135  1  0.46230000  0.40870000  0.13250000  1
  C  C136  1  0.63010000  0.40120000  0.89180000  1
  C  C137  1  0.62820000  0.39680000  0.98230000  1
  C  C138  1  0.63390000  0.39630000  0.69070000  1
  C  C139  1  0.62670000  0.39470000  0.64560000  1
  C  C140  1  0.39640000  0.39410000  0.72230000  1
  C  C141  1  0.62580000  0.39120000  0.02960000  1
  C  C142  1  0.64940000  0.38690000  0.14860000  1
  C  C143  1  0.39300000  0.38600000  0.76480000  1
  C  C144  1  0.65670000  0.38450000  0.19540000  1
  C  C145  1  0.66710000  0.37750000  0.28030000  1
  C  C146  1  0.39930000  0.37680000  0.38830000  1
  C  C147  1  0.68790000  0.37670000  0.70450000  1
  C  C148  1  0.67340000  0.37330000  0.61280000  1
  C  C149  1  0.67270000  0.37040000  0.91050000  1
  C  C150  1  0.40810000  0.36880000  0.18360000  1
  C  C151  1  0.40790000  0.36870000  0.47540000  1
  C  C152  1  0.67350000  0.36780000  0.95310000  1
  C  C153  1  0.41870000  0.36680000  0.14000000  1
  C  C154  1  0.41150000  0.36490000  0.52260000  1
  C  C155  1  0.37960000  0.36090000  0.64040000  1
  C  C156  1  0.73590000  0.35650000  0.67320000  1
  C  C157  1  0.72650000  0.35430000  0.62930000  1
  C  C158  1  0.72120000  0.35330000  0.77240000  1
  C  C159  1  0.37530000  0.35080000  0.68710000  1
  C  C160  1  0.69600000  0.34530000  0.20130000  1
  C  C161  1  0.69940000  0.34180000  0.24690000  1
  C  C162  1  0.37180000  0.33980000  0.77250000  1
  C  C163  1  0.36720000  0.33650000  0.40030000  1
  C  C164  1  0.77680000  0.33480000  0.59630000  1
  C  C165  1  0.37090000  0.33230000  0.44480000  1
  C  C166  1  0.73230000  0.33140000  0.83740000  1
  C  C167  1  0.37120000  0.32830000  0.19360000  1
  C  C168  1  0.39460000  0.32490000  0.10480000  1
  C  C169  1  0.33620000  0.30390000  0.26120000  1
  C  C170  1  0.35270000  0.30270000  0.69190000  1
  C  C171  1  0.34800000  0.29780000  0.73500000  1
  C  C172  1  0.31880000  0.28820000  0.32800000  1
  C  C173  1  0.34490000  0.28800000  0.15780000  1
  C  C174  1  0.78300000  0.28720000  0.77710000  1
  C  C175  1  0.35970000  0.28610000  0.11270000  1
  C  C176  1  0.77320000  0.26500000  0.23570000  1
  C  C177  1  0.83710000  0.26060000  0.42310000  1
  C  C178  1  0.33710000  0.23940000  0.07690000  1
  C  C179  1  0.27320000  0.23500000  0.26430000  1
  C  C180  1  0.85970000  0.21390000  0.38730000  1
  C  C181  1  0.28300000  0.21280000  0.72290000  1
  C  C182  1  0.84490000  0.21200000  0.34220000  1
  C  C183  1  0.81880000  0.21180000  0.17200000  1
  C  C184  1  0.84800000  0.20220000  0.76500000  1
  C  C185  1  0.85270000  0.19730000  0.80810000  1
  C  C186  1  0.83620000  0.19610000  0.23880000  1
  C  C187  1  0.89460000  0.17510000  0.39520000  1
  C  C188  1  0.87120000  0.17170000  0.30640000  1
  C  C189  1  0.23230000  0.16860000  0.66260000  1
  C  C190  1  0.87090000  0.16770000  0.05520000  1
  C  C191  1  0.27680000  0.16520000  0.90370000  1
  C  C192  1  0.86720000  0.16350000  0.09970000  1
  C  C193  1  0.87180000  0.16020000  0.72750000  1
  C  C194  1  0.19940000  0.15820000  0.25310000  1
  C  C195  1  0.19600000  0.15470000  0.29870000  1
  C  C196  1  0.87530000  0.14920000  0.81290000  1
  C  C197  1  0.22120000  0.14670000  0.72760000  1
  C  C198  1  0.22650000  0.14570000  0.87070000  1
  C  C199  1  0.23590000  0.14350000  0.82680000  1
  C  C200  1  0.87960000  0.13910000  0.85960000  1
  C  C201  1  0.91150000  0.13510000  0.97740000  1
  C  C202  1  0.91870000  0.13320000  0.36000000  1
  C  C203  1  0.17350000  0.13220000  0.54690000  1
  C  C204  1  0.90790000  0.13130000  0.02460000  1
  C  C205  1  0.90810000  0.13120000  0.31640000  1
  C  C206  1  0.17270000  0.12960000  0.58950000  1
  C  C207  1  0.17340000  0.12670000  0.88720000  1
  C  C208  1  0.18790000  0.12330000  0.79550000  1
  C  C209  1  0.89930000  0.12320000  0.11170000  1
  C  C210  1  0.16710000  0.12250000  0.21970000  1
  C  C211  1  0.15670000  0.11550000  0.30460000  1
  C  C212  1  0.89300000  0.11400000  0.73520000  1
  C  C213  1  0.14940000  0.11310000  0.35140000  1
  C  C214  1  0.12580000  0.10880000  0.47040000  1
  C  C215  1  0.89640000  0.10590000  0.77770000  1
  C  C216  1  0.12670000  0.10530000  0.85440000  1
  C  C217  1  0.13390000  0.10370000  0.80930000  1
  C  C218  1  0.12820000  0.10320000  0.51770000  1
  C  C219  1  0.13010000  0.09880000  0.60820000  1
  C  C220  1  0.96230000  0.09130000  0.36750000  1
  C  C221  1  0.94010000  0.09070000  0.03560000  1
  C  C222  1  0.93450000  0.08730000  0.08020000  1
  C  C223  1  0.06800000  0.08430000  0.86730000  1
  C  C224  1  0.12830000  0.08410000  0.22800000  1
  C  C225  1  0.12420000  0.07960000  0.27270000  1
  C  C226  1  0.08360000  0.07360000  0.53120000  1
  C  C227  1  0.08440000  0.07170000  0.57430000  1
  C  C228  1  0.91660000  0.06830000  0.69530000  1
  C  C229  1  0.09340000  0.04530000  0.19060000  1
  C  C230  1  0.97040000  0.04440000  0.09350000  1
  C  C231  1  0.03690000  0.03960000  0.59140000  1
  N  N232  1  0.80850000  0.88510000  0.25090000  1
  N  N233  1  0.79600000  0.86420000  0.31620000  1
  N  N234  1  0.78040000  0.83910000  0.38000000  1
  N  N235  1  0.13580000  0.83560000  0.73980000  1
  N  N236  1  0.15580000  0.81990000  0.80530000  1
  N  N237  1  0.73910000  0.81510000  0.25050000  1
  N  N238  1  0.76360000  0.80610000  0.75980000  1
  N  N239  1  0.17160000  0.79730000  0.87150000  1
  N  N240  1  0.72670000  0.79290000  0.32110000  1
  N  N241  1  0.19830000  0.76090000  0.73740000  1
  N  N242  1  0.71800000  0.75530000  0.69100000  1
  N  N243  1  0.17620000  0.75230000  0.24690000  1
  N  N244  1  0.67620000  0.74770000  0.25310000  1
  N  N245  1  0.21800000  0.74470000  0.80900000  1
  N  N246  1  0.69830000  0.73910000  0.76260000  1
  N  N247  1  0.22670000  0.70710000  0.17890000  1
  N  N248  1  0.67160000  0.70270000  0.62850000  1
  N  N249  1  0.26360000  0.69390000  0.74020000  1
  N  N250  1  0.23910000  0.68490000  0.24950000  1
  N  N251  1  0.65580000  0.68010000  0.69470000  1
  N  N252  1  0.63580000  0.66440000  0.76020000  1
  N  N253  1  0.28040000  0.66090000  0.12000000  1
  N  N254  1  0.29600000  0.63580000  0.18380000  1
  N  N255  1  0.30850000  0.61490000  0.24910000  1
  N  N256  1  0.69150000  0.38510000  0.75090000  1
  N  N257  1  0.70400000  0.36420000  0.81620000  1
  N  N258  1  0.71960000  0.33910000  0.88000000  1
  N  N259  1  0.36420000  0.33560000  0.23980000  1
  N  N260  1  0.34420000  0.31990000  0.30530000  1
  N  N261  1  0.76090000  0.31510000  0.75050000  1
  N  N262  1  0.73640000  0.30610000  0.25980000  1
  N  N263  1  0.32840000  0.29730000  0.37150000  1
  N  N264  1  0.77330000  0.29290000  0.82110000  1
  N  N265  1  0.30170000  0.26090000  0.23740000  1
  N  N266  1  0.78200000  0.25530000  0.19100000  1
  N  N267  1  0.32380000  0.25230000  0.74690000  1
  N  N268  1  0.82380000  0.24770000  0.75310000  1
  N  N269  1  0.28200000  0.24470000  0.30900000  1
  N  N270  1  0.80170000  0.23910000  0.26260000  1
  N  N271  1  0.27330000  0.20710000  0.67890000  1
  N  N272  1  0.82840000  0.20270000  0.12850000  1
  N  N273  1  0.23640000  0.19390000  0.24020000  1
  N  N274  1  0.26090000  0.18490000  0.74950000  1
  N  N275  1  0.84420000  0.18010000  0.19470000  1
  N  N276  1  0.86420000  0.16440000  0.26020000  1
  N  N277  1  0.21960000  0.16090000  0.62000000  1
  N  N278  1  0.20400000  0.13580000  0.68380000  1
  N  N279  1  0.19150000  0.11490000  0.74910000  1
  O  O280  1  0.94230000  0.98780000  0.80111000  1
  O  O281  1  0.99350000  0.98590000  0.93472000  1
  O  O282  1  0.00710000  0.98100000  0.43488000  1
  O  O283  1  0.06110000  0.97350000  0.29809000  1
  O  O284  1  0.90080000  0.96920000  0.29420000  1
  O  O285  1  0.95980000  0.96600000  0.37046000  1
  O  O286  1  0.03430000  0.96050000  0.86914000  1
  O  O287  1  0.89750000  0.95330000  0.84810000  1
  O  O288  1  0.00820000  0.93700000  0.66430000  1
  O  O289  1  0.86680000  0.93580000  0.64360000  1
  O  O290  1  0.97430000  0.92830000  0.16030000  1
  O  O291  1  0.93240000  0.92770000  0.28290000  1
  O  O292  1  0.08660000  0.92580000  0.34230000  1
  O  O293  1  0.93780000  0.92300000  0.09395000  1
  O  O294  1  0.03060000  0.91280000  0.59448000  1
  O  O295  1  0.91900000  0.91030000  0.55279000  1
  O  O296  1  0.11020000  0.90640000  0.13700000  1
  O  O297  1  0.04830000  0.88960000  0.04837000  1
  O  O298  1  0.82930000  0.86820000  0.54130000  1
  O  O299  1  0.82660000  0.85350000  0.61580000  1
  O  O300  1  0.12540000  0.82980000  0.03190000  1
  O  O301  1  0.73200000  0.82780000  0.05560000  1
  O  O302  1  0.67160000  0.82420000  0.10900000  1
  O  O303  1  0.12900000  0.81800000  0.10640000  1
  O  O304  1  0.68530000  0.80140000  0.91680000  1
  O  O305  1  0.65550000  0.75670000  0.96350000  1
  O  O306  1  0.15550000  0.74330000  0.53650000  1
  O  O307  1  0.18530000  0.69860000  0.58320000  1
  O  O308  1  0.62900000  0.68200000  0.39360000  1
  O  O309  1  0.17160000  0.67580000  0.39100000  1
  O  O310  1  0.23200000  0.67220000  0.44440000  1
  O  O311  1  0.62540000  0.67020000  0.46810000  1
  O  O312  1  0.32660000  0.64650000  0.88420000  1
  O  O313  1  0.32930000  0.63180000  0.95870000  1
  O  O314  1  0.54830000  0.61040000  0.45163000  1
  O  O315  1  0.61020000  0.59360000  0.36300000  1
  O  O316  1  0.41900000  0.58970000  0.94721000  1
  O  O317  1  0.53060000  0.58720000  0.90552000  1
  O  O318  1  0.43780000  0.57700000  0.40605000  1
  O  O319  1  0.58660000  0.57420000  0.15770000  1
  O  O320  1  0.43240000  0.57230000  0.21710000  1
  O  O321  1  0.47430000  0.57170000  0.33970000  1
  O  O322  1  0.36680000  0.56420000  0.85640000  1
  O  O323  1  0.50820000  0.56300000  0.83570000  1
  O  O324  1  0.39750000  0.54670000  0.65190000  1
  O  O325  1  0.53430000  0.53950000  0.63086000  1
  O  O326  1  0.45980000  0.53400000  0.12954000  1
  O  O327  1  0.40080000  0.53080000  0.20580000  1
  O  O328  1  0.56110000  0.52650000  0.20191000  1
  O  O329  1  0.50710000  0.51900000  0.06512000  1
  O  O330  1  0.49350000  0.51410000  0.56528000  1
  O  O331  1  0.44230000  0.51220000  0.69889000  1
  O  O332  1  0.55770000  0.48780000  0.30111000  1
  O  O333  1  0.50650000  0.48590000  0.43472000  1
  O  O334  1  0.49290000  0.48100000  0.93488000  1
  O  O335  1  0.43890000  0.47350000  0.79809000  1
  O  O336  1  0.59920000  0.46920000  0.79420000  1
  O  O337  1  0.54020000  0.46600000  0.87046000  1
  O  O338  1  0.46570000  0.46050000  0.36914000  1
  O  O339  1  0.60250000  0.45330000  0.34810000  1
  O  O340  1  0.49180000  0.43700000  0.16430000  1
  O  O341  1  0.63320000  0.43580000  0.14360000  1
  O  O342  1  0.52570000  0.42830000  0.66030000  1
  O  O343  1  0.56760000  0.42770000  0.78290000  1
  O  O344  1  0.41340000  0.42580000  0.84230000  1
  O  O345  1  0.56220000  0.42300000  0.59395000  1
  O  O346  1  0.46940000  0.41280000  0.09448000  1
  O  O347  1  0.58100000  0.41030000  0.05279000  1
  O  O348  1  0.38980000  0.40640000  0.63700000  1
  O  O349  1  0.45170000  0.38960000  0.54837000  1
  O  O350  1  0.67070000  0.36820000  0.04130000  1
  O  O351  1  0.67340000  0.35350000  0.11580000  1
  O  O352  1  0.37460000  0.32980000  0.53190000  1
  O  O353  1  0.76800000  0.32780000  0.55560000  1
  O  O354  1  0.82840000  0.32420000  0.60900000  1
  O  O355  1  0.37100000  0.31800000  0.60640000  1
  O  O356  1  0.81470000  0.30140000  0.41680000  1
  O  O357  1  0.84450000  0.25670000  0.46350000  1
  O  O358  1  0.34450000  0.24330000  0.03650000  1
  O  O359  1  0.31470000  0.19860000  0.08320000  1
  O  O360  1  0.87100000  0.18200000  0.89360000  1
  O  O361  1  0.32840000  0.17580000  0.89100000  1
  O  O362  1  0.26800000  0.17220000  0.94440000  1
  O  O363  1  0.87460000  0.17020000  0.96810000  1
  O  O364  1  0.17340000  0.14650000  0.38420000  1
  O  O365  1  0.17070000  0.13180000  0.45870000  1
  O  O366  1  0.95170000  0.11040000  0.95163000  1
  O  O367  1  0.88980000  0.09360000  0.86300000  1
  O  O368  1  0.08100000  0.08970000  0.44721000  1
  O  O369  1  0.96940000  0.08720000  0.40552000  1
  O  O370  1  0.06220000  0.07700000  0.90605000  1
  O  O371  1  0.91340000  0.07420000  0.65770000  1
  O  O372  1  0.06760000  0.07230000  0.71710000  1
  O  O373  1  0.02570000  0.07170000  0.83970000  1
  O  O374  1  0.13320000  0.06420000  0.35640000  1
  O  O375  1  0.99180000  0.06300000  0.33570000  1
  O  O376  1  0.10250000  0.04670000  0.15190000  1
  O  O377  1  0.96570000  0.03950000  0.13086000  1
  O  O378  1  0.04020000  0.03400000  0.62954000  1
  O  O379  1  0.09920000  0.03080000  0.70580000  1
  O  O380  1  0.93890000  0.02650000  0.70191000  1
  O  O381  1  0.99290000  0.01900000  0.56512000  1
  O  O382  1  0.00650000  0.01410000  0.06528000  1
  O  O383  1  0.05770000  0.01220000  0.19889000  1
