# generated using pymatgen
data_MnH4(C2O)4
_symmetry_space_group_name_H-M   'P 1'
_cell_length_a   10.85420000
_cell_length_b   13.50210000
_cell_length_c   14.45120000
_cell_angle_alpha   76.37670000
_cell_angle_beta   67.94200000
_cell_angle_gamma   66.30030000
_symmetry_Int_Tables_number   1
_chemical_formula_structural   MnH4(C2O)4
_chemical_formula_sum   'Mn6 H24 C48 O24'
_cell_volume   1788.37777640
_cell_formula_units_Z   6
loop_
 _symmetry_equiv_pos_site_id
 _symmetry_equiv_pos_as_xyz
  1  'x, y, z'
loop_
 _atom_site_type_symbol
 _atom_site_label
 _atom_site_symmetry_multiplicity
 _atom_site_fract_x
 _atom_site_fract_y
 _atom_site_fract_z
 _atom_site_occupancy
  Mn  Mn0  1  0.13902000  0.96206000  0.88862000  1
  Mn  Mn1  1  0.21379000  0.75000000  0.75000000  1
  Mn  Mn2  1  0.48970000  0.53794000  0.61138000  1
  Mn  Mn3  1  0.51030000  0.46206000  0.38862000  1
  Mn  Mn4  1  0.78621000  0.25000000  0.25000000  1
  Mn  Mn5  1  0.86098000  0.03794000  0.11138000  1
  H  H6  1  0.04410000  0.45920000  0.09260000  1
  H  H7  1  0.09590000  0.04080000  0.40740000  1
  H  H8  1  0.13170000  0.59220000  0.99120000  1
  H  H9  1  0.13960000  0.81220000  0.25320000  1
  H  H10  1  0.20140000  0.18010000  0.84830000  1
  H  H11  1  0.21510000  0.90780000  0.50880000  1
  H  H12  1  0.27020000  0.68010000  0.34830000  1
  H  H13  1  0.29500000  0.31220000  0.75320000  1
  H  H14  1  0.33870000  0.65900000  0.95160000  1
  H  H15  1  0.34050000  0.62180000  0.11620000  1
  H  H16  1  0.42150000  0.12180000  0.61620000  1
  H  H17  1  0.44930000  0.84100000  0.54840000  1
  H  H18  1  0.55070000  0.15900000  0.45160000  1
  H  H19  1  0.57850000  0.87820000  0.38380000  1
  H  H20  1  0.65950000  0.37820000  0.88380000  1
  H  H21  1  0.66130000  0.34100000  0.04840000  1
  H  H22  1  0.70500000  0.68780000  0.24680000  1
  H  H23  1  0.72980000  0.31990000  0.65170000  1
  H  H24  1  0.78490000  0.09220000  0.49120000  1
  H  H25  1  0.79860000  0.81990000  0.15170000  1
  H  H26  1  0.86040000  0.18780000  0.74680000  1
  H  H27  1  0.86830000  0.40780000  0.00880000  1
  H  H28  1  0.90410000  0.95920000  0.59260000  1
  H  H29  1  0.95590000  0.54080000  0.90740000  1
  C  C30  1  0.00680000  0.46812000  0.89648000  1
  C  C31  1  0.01695000  0.02467000  0.25943000  1
  C  C32  1  0.02615000  0.28071000  0.93919000  1
  C  C33  1  0.03064000  0.80520000  0.99604000  1
  C  C34  1  0.04666000  0.61155000  0.04333000  1
  C  C35  1  0.10415000  0.93995000  0.32055000  1
  C  C36  1  0.12860000  0.96812000  0.39648000  1
  C  C37  1  0.13535000  0.43995000  0.82055000  1
  C  C38  1  0.15316000  0.25229000  0.86159000  1
  C  C39  1  0.15621000  0.83181000  0.30377000  1
  C  C40  1  0.19895000  0.52467000  0.75943000  1
  C  C41  1  0.20154000  0.88845000  0.45667000  1
  C  C42  1  0.20821000  0.33181000  0.80377000  1
  C  C43  1  0.23296000  0.75229000  0.36159000  1
  C  C44  1  0.25395000  0.78071000  0.43919000  1
  C  C45  1  0.33188000  0.69480000  0.50396000  1
  C  C46  1  0.33403000  0.95586000  0.70368000  1
  C  C47  1  0.40328000  0.59500000  0.97104000  1
  C  C48  1  0.40488000  0.57291000  0.06953000  1
  C  C49  1  0.42149000  0.97839000  0.59823000  1
  C  C50  1  0.45268000  0.07291000  0.56953000  1
  C  C51  1  0.46932000  0.90500000  0.52896000  1
  C  C52  1  0.49357000  0.54414000  0.79632000  1
  C  C53  1  0.49811000  0.52161000  0.90177000  1
  C  C54  1  0.50189000  0.47839000  0.09823000  1
  C  C55  1  0.50643000  0.45586000  0.20368000  1
  C  C56  1  0.53068000  0.09500000  0.47104000  1
  C  C57  1  0.54732000  0.92709000  0.43047000  1
  C  C58  1  0.57851000  0.02161000  0.40177000  1
  C  C59  1  0.59512000  0.42709000  0.93047000  1
  C  C60  1  0.59672000  0.40500000  0.02896000  1
  C  C61  1  0.66597000  0.04414000  0.29632000  1
  C  C62  1  0.66812000  0.30520000  0.49604000  1
  C  C63  1  0.74605000  0.21929000  0.56081000  1
  C  C64  1  0.76704000  0.24771000  0.63841000  1
  C  C65  1  0.79179000  0.66819000  0.19623000  1
  C  C66  1  0.79846000  0.11155000  0.54333000  1
  C  C67  1  0.80105000  0.47533000  0.24057000  1
  C  C68  1  0.84379000  0.16819000  0.69623000  1
  C  C69  1  0.84684000  0.74771000  0.13841000  1
  C  C70  1  0.86465000  0.56005000  0.17945000  1
  C  C71  1  0.87140000  0.03188000  0.60352000  1
  C  C72  1  0.89585000  0.06005000  0.67945000  1
  C  C73  1  0.95334000  0.38845000  0.95667000  1
  C  C74  1  0.96936000  0.19480000  0.00396000  1
  C  C75  1  0.97385000  0.71929000  0.06081000  1
  C  C76  1  0.98305000  0.97533000  0.74057000  1
  C  C77  1  0.99320000  0.53188000  0.10352000  1
  O  O78  1  0.00429000  0.99099000  0.19123000  1
  O  O79  1  0.01753000  0.10138000  0.97542000  1
  O  O80  1  0.03886000  0.87952000  0.71752000  1
  O  O81  1  0.12820000  0.78432000  0.91374000  1
  O  O82  1  0.13590000  0.62048000  0.78248000  1
  O  O83  1  0.28294000  0.02773000  0.76239000  1
  O  O84  1  0.31349000  0.49099000  0.69123000  1
  O  O85  1  0.31374000  0.86689000  0.73109000  1
  O  O86  1  0.32626000  0.71568000  0.58626000  1
  O  O87  1  0.40567000  0.60138000  0.47542000  1
  O  O88  1  0.41172000  0.63311000  0.76891000  1
  O  O89  1  0.42694000  0.52773000  0.26239000  1
  O  O90  1  0.57306000  0.47227000  0.73761000  1
  O  O91  1  0.58828000  0.36689000  0.23109000  1
  O  O92  1  0.59433000  0.39862000  0.52458000  1
  O  O93  1  0.67374000  0.28432000  0.41374000  1
  O  O94  1  0.68626000  0.13311000  0.26891000  1
  O  O95  1  0.68651000  0.50901000  0.30877000  1
  O  O96  1  0.71706000  0.97227000  0.23761000  1
  O  O97  1  0.86410000  0.37952000  0.21752000  1
  O  O98  1  0.87180000  0.21568000  0.08626000  1
  O  O99  1  0.96114000  0.12048000  0.28248000  1
  O  O100  1  0.98247000  0.89862000  0.02458000  1
  O  O101  1  0.99571000  0.00901000  0.80877000  1
