# generated using pymatgen
data_ZnH19C19N4O5
_symmetry_space_group_name_H-M   'P 1'
_cell_length_a   7.21690000
_cell_length_b   16.93890000
_cell_length_c   17.08970000
_cell_angle_alpha   90.00000000
_cell_angle_beta   95.51300000
_cell_angle_gamma   90.00000000
_symmetry_Int_Tables_number   1
_chemical_formula_structural   ZnH19C19N4O5
_chemical_formula_sum   'Zn4 H76 C76 N16 O20'
_cell_volume   2079.48986974
_cell_formula_units_Z   4
loop_
 _symmetry_equiv_pos_site_id
 _symmetry_equiv_pos_as_xyz
  1  'x, y, z'
loop_
 _atom_site_type_symbol
 _atom_site_label
 _atom_site_symmetry_multiplicity
 _atom_site_fract_x
 _atom_site_fract_y
 _atom_site_fract_z
 _atom_site_occupancy
  Zn  Zn0  1  0.06818000  0.20081000  0.69136000  1
  Zn  Zn1  1  0.43182000  0.70081000  0.80864000  1
  Zn  Zn2  1  0.56818000  0.29919000  0.19136000  1
  Zn  Zn3  1  0.93182000  0.79919000  0.30864000  1
  H  H4  1  0.02040000  0.55140000  0.41030000  1
  H  H5  1  0.02560000  0.77890000  0.79530000  1
  H  H6  1  0.02960000  0.98620000  0.30190000  1
  H  H7  1  0.05620000  0.58240000  0.28080000  1
  H  H8  1  0.06740000  0.06110000  0.55250000  1
  H  H9  1  0.07470000  0.62490000  0.72720000  1
  H  H10  1  0.09370000  0.57220000  0.92570000  1
  H  H11  1  0.10470000  0.46710000  0.39940000  1
  H  H12  1  0.10740000  0.03110000  0.12920000  1
  H  H13  1  0.11200000  0.27530000  0.52070000  1
  H  H14  1  0.11490000  0.84750000  0.01640000  1
  H  H15  1  0.15130000  0.04100000  0.04160000  1
  H  H16  1  0.15350000  0.50110000  0.26920000  1
  H  H17  1  0.17750000  0.98240000  0.53990000  1
  H  H18  1  0.19920000  0.91380000  0.74350000  1
  H  H19  1  0.20350000  0.63150000  0.15300000  1
  H  H20  1  0.22710000  0.79930000  0.53410000  1
  H  H21  1  0.24680000  0.66666667  0.43600000  1
  H  H22  1  0.24720000  0.15720000  0.15490000  1
  H  H23  1  0.25280000  0.65720000  0.34510000  1
  H  H24  1  0.25320000  0.16670000  0.06400000  1
  H  H25  1  0.27290000  0.29930000  0.96590000  1
  H  H26  1  0.29650000  0.13150000  0.34700000  1
  H  H27  1  0.30080000  0.41380000  0.75650000  1
  H  H28  1  0.32250000  0.48240000  0.96010000  1
  H  H29  1  0.34650000  0.00110000  0.23080000  1
  H  H30  1  0.34870000  0.54100000  0.45840000  1
  H  H31  1  0.38510000  0.34750000  0.48360000  1
  H  H32  1  0.38800000  0.77530000  0.97930000  1
  H  H33  1  0.39260000  0.53110000  0.37080000  1
  H  H34  1  0.39530000  0.96710000  0.10060000  1
  H  H35  1  0.40630000  0.07220000  0.57430000  1
  H  H36  1  0.42530000  0.12490000  0.77280000  1
  H  H37  1  0.43260000  0.56110000  0.94750000  1
  H  H38  1  0.44380000  0.08240000  0.21920000  1
  H  H39  1  0.47040000  0.48620000  0.19810000  1
  H  H40  1  0.47440000  0.27890000  0.70470000  1
  H  H41  1  0.47960000  0.05140000  0.08970000  1
  H  H42  1  0.52040000  0.94860000  0.91030000  1
  H  H43  1  0.52560000  0.72110000  0.29530000  1
  H  H44  1  0.52960000  0.51380000  0.80190000  1
  H  H45  1  0.55620000  0.91760000  0.78080000  1
  H  H46  1  0.56740000  0.43890000  0.05250000  1
  H  H47  1  0.57470000  0.87510000  0.22720000  1
  H  H48  1  0.59370000  0.92780000  0.42570000  1
  H  H49  1  0.60470000  0.03290000  0.89940000  1
  H  H50  1  0.60740000  0.46890000  0.62920000  1
  H  H51  1  0.61200000  0.22470000  0.02070000  1
  H  H52  1  0.61490000  0.65250000  0.51640000  1
  H  H53  1  0.65130000  0.45900000  0.54160000  1
  H  H54  1  0.65350000  0.99890000  0.76920000  1
  H  H55  1  0.67750000  0.51760000  0.03990000  1
  H  H56  1  0.69920000  0.58620000  0.24350000  1
  H  H57  1  0.70350000  0.86850000  0.65300000  1
  H  H58  1  0.72710000  0.70070000  0.03410000  1
  H  H59  1  0.74680000  0.83330000  0.93600000  1
  H  H60  1  0.74720000  0.34280000  0.65490000  1
  H  H61  1  0.75280000  0.84280000  0.84510000  1
  H  H62  1  0.75320000  0.33333333  0.56400000  1
  H  H63  1  0.77290000  0.20070000  0.46590000  1
  H  H64  1  0.79650000  0.36850000  0.84700000  1
  H  H65  1  0.80080000  0.08620000  0.25650000  1
  H  H66  1  0.82250000  0.01760000  0.46010000  1
  H  H67  1  0.84650000  0.49890000  0.73080000  1
  H  H68  1  0.84870000  0.95900000  0.95840000  1
  H  H69  1  0.88510000  0.15250000  0.98360000  1
  H  H70  1  0.88800000  0.72470000  0.47930000  1
  H  H71  1  0.89260000  0.96890000  0.87080000  1
  H  H72  1  0.89530000  0.53290000  0.60060000  1
  H  H73  1  0.90630000  0.42780000  0.07430000  1
  H  H74  1  0.92530000  0.37510000  0.27280000  1
  H  H75  1  0.93260000  0.93890000  0.44750000  1
  H  H76  1  0.94380000  0.41760000  0.71920000  1
  H  H77  1  0.97040000  0.01380000  0.69810000  1
  H  H78  1  0.97440000  0.22110000  0.20470000  1
  H  H79  1  0.97960000  0.44860000  0.58970000  1
  C  C80  1  0.04230000  0.32660000  0.89500000  1
  C  C81  1  0.05830000  0.52730000  0.29620000  1
  C  C82  1  0.05950000  0.59730000  0.97060000  1
  C  C83  1  0.08330000  0.78690000  0.84570000  1
  C  C84  1  0.09010000  0.02030000  0.51480000  1
  C  C85  1  0.09150000  0.02380000  0.71950000  1
  C  C86  1  0.09380000  0.28310000  0.82380000  1
  C  C87  1  0.10670000  0.36135000  0.03112000  1
  C  C88  1  0.10930000  0.52180000  0.38290000  1
  C  C89  1  0.12420000  0.63280000  0.10681000  1
  C  C90  1  0.12970000  0.82500000  0.96780000  1
  C  C91  1  0.15880000  0.32502000  0.96436000  1
  C  C92  1  0.16060000  0.58490000  0.73970000  1
  C  C93  1  0.17430000  0.59430000  0.04110000  1
  C  C94  1  0.18490000  0.14270000  0.10410000  1
  C  C95  1  0.19240000  0.05510000  0.09550000  1
  C  C96  1  0.21660000  0.96820000  0.74420000  1
  C  C97  1  0.21940000  0.28540000  0.55370000  1
  C  C98  1  0.23160000  0.35650000  0.10770000  1
  C  C99  1  0.26840000  0.85650000  0.39230000  1
  C  C100  1  0.28060000  0.78540000  0.94630000  1
  C  C101  1  0.28340000  0.46820000  0.75580000  1
  C  C102  1  0.30760000  0.55510000  0.40450000  1
  C  C103  1  0.31510000  0.64270000  0.39590000  1
  C  C104  1  0.32570000  0.09430000  0.45890000  1
  C  C105  1  0.33940000  0.08490000  0.76030000  1
  C  C106  1  0.34120000  0.82502000  0.53564000  1
  C  C107  1  0.37030000  0.32500000  0.53220000  1
  C  C108  1  0.37580000  0.13280000  0.39319000  1
  C  C109  1  0.39070000  0.02180000  0.11710000  1
  C  C110  1  0.39330000  0.86135000  0.46888000  1
  C  C111  1  0.40620000  0.78310000  0.67620000  1
  C  C112  1  0.40850000  0.52380000  0.78050000  1
  C  C113  1  0.40990000  0.52030000  0.98520000  1
  C  C114  1  0.41670000  0.28690000  0.65430000  1
  C  C115  1  0.44050000  0.09730000  0.52940000  1
  C  C116  1  0.44170000  0.02730000  0.20380000  1
  C  C117  1  0.45770000  0.82660000  0.60500000  1
  C  C118  1  0.54230000  0.17340000  0.39500000  1
  C  C119  1  0.55830000  0.97270000  0.79620000  1
  C  C120  1  0.55950000  0.90270000  0.47060000  1
  C  C121  1  0.58330000  0.71310000  0.34570000  1
  C  C122  1  0.59010000  0.47970000  0.01480000  1
  C  C123  1  0.59150000  0.47620000  0.21950000  1
  C  C124  1  0.59380000  0.21690000  0.32380000  1
  C  C125  1  0.60670000  0.13865000  0.53112000  1
  C  C126  1  0.60930000  0.97820000  0.88290000  1
  C  C127  1  0.62420000  0.86720000  0.60681000  1
  C  C128  1  0.62970000  0.67500000  0.46780000  1
  C  C129  1  0.65880000  0.17498000  0.46436000  1
  C  C130  1  0.66060000  0.91510000  0.23970000  1
  C  C131  1  0.67430000  0.90570000  0.54110000  1
  C  C132  1  0.68490000  0.35730000  0.60410000  1
  C  C133  1  0.69240000  0.44490000  0.59550000  1
  C  C134  1  0.71660000  0.53180000  0.24420000  1
  C  C135  1  0.71940000  0.21460000  0.05370000  1
  C  C136  1  0.73160000  0.14350000  0.60770000  1
  C  C137  1  0.76840000  0.64350000  0.89230000  1
  C  C138  1  0.78060000  0.71460000  0.44630000  1
  C  C139  1  0.78340000  0.03180000  0.25580000  1
  C  C140  1  0.80760000  0.94490000  0.90450000  1
  C  C141  1  0.81510000  0.85730000  0.89590000  1
  C  C142  1  0.82570000  0.40570000  0.95890000  1
  C  C143  1  0.83940000  0.41510000  0.26030000  1
  C  C144  1  0.84120000  0.67498000  0.03564000  1
  C  C145  1  0.87030000  0.17500000  0.03220000  1
  C  C146  1  0.87580000  0.36720000  0.89319000  1
  C  C147  1  0.89070000  0.47820000  0.61710000  1
  C  C148  1  0.89330000  0.63865000  0.96888000  1
  C  C149  1  0.90620000  0.71690000  0.17620000  1
  C  C150  1  0.90850000  0.97620000  0.28050000  1
  C  C151  1  0.90990000  0.97970000  0.48520000  1
  C  C152  1  0.91670000  0.21310000  0.15430000  1
  C  C153  1  0.94050000  0.40270000  0.02940000  1
  C  C154  1  0.94170000  0.47270000  0.70380000  1
  C  C155  1  0.95770000  0.67340000  0.10500000  1
  N  N156  1  0.00400000  0.82474000  0.90246000  1
  N  N157  1  0.12420000  0.50852000  0.72928000  1
  N  N158  1  0.16810000  0.09693000  0.73026000  1
  N  N159  1  0.24780000  0.26251000  0.63074000  1
  N  N160  1  0.25220000  0.76251000  0.86926000  1
  N  N161  1  0.33190000  0.59693000  0.76974000  1
  N  N162  1  0.37580000  0.00852000  0.77072000  1
  N  N163  1  0.49600000  0.32474000  0.59754000  1
  N  N164  1  0.50400000  0.67526000  0.40246000  1
  N  N165  1  0.62420000  0.99148000  0.22928000  1
  N  N166  1  0.66810000  0.40307000  0.23026000  1
  N  N167  1  0.74780000  0.23749000  0.13074000  1
  N  N168  1  0.75220000  0.73749000  0.36926000  1
  N  N169  1  0.83190000  0.90307000  0.26974000  1
  N  N170  1  0.87580000  0.49148000  0.27072000  1
  N  N171  1  0.99600000  0.17526000  0.09754000  1
  O  O172  1  0.03700000  0.72991000  0.23153000  1
  O  O173  1  0.11890000  0.81543000  0.39671000  1
  O  O174  1  0.16100000  0.05333000  0.44869000  1
  O  O175  1  0.18980000  0.38907000  0.16744000  1
  O  O176  1  0.24390000  0.76070000  0.68008000  1
  O  O177  1  0.25610000  0.26070000  0.81992000  1
  O  O178  1  0.31020000  0.88907000  0.33256000  1
  O  O179  1  0.33900000  0.55333000  0.05131000  1
  O  O180  1  0.38110000  0.31543000  0.10329000  1
  O  O181  1  0.46300000  0.22991000  0.26847000  1
  O  O182  1  0.53700000  0.77009000  0.73153000  1
  O  O183  1  0.61890000  0.68457000  0.89671000  1
  O  O184  1  0.66100000  0.44667000  0.94869000  1
  O  O185  1  0.68980000  0.11093000  0.66744000  1
  O  O186  1  0.74390000  0.73930000  0.18008000  1
  O  O187  1  0.75610000  0.23930000  0.31992000  1
  O  O188  1  0.81020000  0.61093000  0.83256000  1
  O  O189  1  0.83900000  0.94667000  0.55131000  1
  O  O190  1  0.88110000  0.18457000  0.60329000  1
  O  O191  1  0.96300000  0.27009000  0.76847000  1
