# generated using pymatgen
data_NiH28(C7N2)4
_symmetry_space_group_name_H-M   'P 1'
_cell_length_a   13.47000000
_cell_length_b   14.64900000
_cell_length_c   24.39900000
_cell_angle_alpha   106.60700000
_cell_angle_beta   90.00000000
_cell_angle_gamma   90.00000000
_symmetry_Int_Tables_number   1
_chemical_formula_structural   NiH28(C7N2)4
_chemical_formula_sum   'Ni4 H112 C112 N32'
_cell_volume   4613.63782753
_cell_formula_units_Z   4
loop_
 _symmetry_equiv_pos_site_id
 _symmetry_equiv_pos_as_xyz
  1  'x, y, z'
loop_
 _atom_site_type_symbol
 _atom_site_label
 _atom_site_symmetry_multiplicity
 _atom_site_fract_x
 _atom_site_fract_y
 _atom_site_fract_z
 _atom_site_occupancy
  Ni  Ni0  1  0.34691000  0.85576000  0.72605000  1
  Ni  Ni1  1  0.84691000  0.64424000  0.77396000  1
  Ni  Ni2  1  0.15309000  0.35576000  0.22605000  1
  Ni  Ni3  1  0.65309000  0.14424000  0.27396000  1
  H  H4  1  0.59820000  0.99460000  0.15060000  1
  H  H5  1  0.37190000  0.98070000  0.05800000  1
  H  H6  1  0.12030000  0.98000000  0.93110000  1
  H  H7  1  0.02300000  0.97770000  0.82850000  1
  H  H8  1  0.00700000  0.96860000  0.29080000  1
  H  H9  1  0.51630000  0.95620000  0.26460000  1
  H  H10  1  0.43920000  0.94370000  0.41740000  1
  H  H11  1  0.27810000  0.93980000  0.62270000  1
  H  H12  1  0.73990000  0.92930000  0.23250000  1
  H  H13  1  0.91010000  0.92800000  0.31070000  1
  H  H14  1  0.66010000  0.91660000  0.39610000  1
  H  H15  1  0.30370000  0.90930000  0.91680000  1
  H  H16  1  0.27110000  0.90760000  0.97820000  1
  H  H17  1  0.01420000  0.88890000  0.32190000  1
  H  H18  1  0.50120000  0.88200000  0.44800000  1
  H  H19  1  0.38570000  0.86980000  0.44270000  1
  H  H20  1  0.81640000  0.86520000  0.02780000  1
  H  H21  1  0.80090000  0.85640000  0.96280000  1
  H  H22  1  0.57120000  0.85590000  0.67130000  1
  H  H23  1  0.87650000  0.84940000  0.86490000  1
  H  H24  1  0.14360000  0.84820000  0.79870000  1
  H  H25  1  0.33890000  0.82640000  0.94090000  1
  H  H26  1  0.57460000  0.80060000  0.87110000  1
  H  H27  1  0.87550000  0.79360000  0.11160000  1
  H  H28  1  0.87920000  0.79190000  0.98130000  1
  H  H29  1  0.53390000  0.76770000  0.76990000  1
  H  H30  1  0.13170000  0.76410000  0.91330000  1
  H  H31  1  0.55270000  0.76290000  0.24020000  1
  H  H32  1  0.05270000  0.73710000  0.25980000  1
  H  H33  1  0.63170000  0.73590000  0.58670000  1
  H  H34  1  0.03390000  0.73230000  0.73010000  1
  H  H35  1  0.37920000  0.70810000  0.51870000  1
  H  H36  1  0.37550000  0.70640000  0.38840000  1
  H  H37  1  0.07460000  0.69940000  0.62890000  1
  H  H38  1  0.83890000  0.67360000  0.55910000  1
  H  H39  1  0.64360000  0.65180000  0.70130000  1
  H  H40  1  0.37650000  0.65060000  0.63510000  1
  H  H41  1  0.07120000  0.64410000  0.82870000  1
  H  H42  1  0.30090000  0.64360000  0.53720000  1
  H  H43  1  0.31640000  0.63480000  0.47220000  1
  H  H44  1  0.88570000  0.63020000  0.05730000  1
  H  H45  1  0.00120000  0.61800000  0.05200000  1
  H  H46  1  0.51420000  0.61110000  0.17810000  1
  H  H47  1  0.77110000  0.59240000  0.52180000  1
  H  H48  1  0.80370000  0.59070000  0.58320000  1
  H  H49  1  0.16010000  0.58340000  0.10390000  1
  H  H50  1  0.41010000  0.57200000  0.18930000  1
  H  H51  1  0.23990000  0.57070000  0.26750000  1
  H  H52  1  0.77810000  0.56020000  0.87730000  1
  H  H53  1  0.93920000  0.55630000  0.08260000  1
  H  H54  1  0.01630000  0.54380000  0.23540000  1
  H  H55  1  0.50700000  0.53140000  0.20920000  1
  H  H56  1  0.52300000  0.52230000  0.67150000  1
  H  H57  1  0.62030000  0.52000000  0.56890000  1
  H  H58  1  0.87190000  0.51930000  0.44200000  1
  H  H59  1  0.09820000  0.50540000  0.34940000  1
  H  H60  1  0.90180000  0.49460000  0.65060000  1
  H  H61  1  0.12810000  0.48070000  0.55800000  1
  H  H62  1  0.37970000  0.48000000  0.43110000  1
  H  H63  1  0.47700000  0.47770000  0.32850000  1
  H  H64  1  0.49300000  0.46860000  0.79080000  1
  H  H65  1  0.98370000  0.45620000  0.76460000  1
  H  H66  1  0.06080000  0.44370000  0.91740000  1
  H  H67  1  0.22190000  0.43980000  0.12270000  1
  H  H68  1  0.76010000  0.42930000  0.73250000  1
  H  H69  1  0.58990000  0.42800000  0.81070000  1
  H  H70  1  0.83990000  0.41660000  0.89610000  1
  H  H71  1  0.19630000  0.40930000  0.41680000  1
  H  H72  1  0.22890000  0.40760000  0.47820000  1
  H  H73  1  0.48580000  0.38890000  0.82190000  1
  H  H74  1  0.99880000  0.38200000  0.94800000  1
  H  H75  1  0.11430000  0.36980000  0.94270000  1
  H  H76  1  0.68360000  0.36520000  0.52780000  1
  H  H77  1  0.69910000  0.35640000  0.46280000  1
  H  H78  1  0.92880000  0.35590000  0.17130000  1
  H  H79  1  0.62350000  0.34940000  0.36490000  1
  H  H80  1  0.35640000  0.34820000  0.29870000  1
  H  H81  1  0.16110000  0.32640000  0.44090000  1
  H  H82  1  0.92540000  0.30060000  0.37110000  1
  H  H83  1  0.62450000  0.29360000  0.61160000  1
  H  H84  1  0.62080000  0.29190000  0.48130000  1
  H  H85  1  0.96610000  0.26770000  0.26990000  1
  H  H86  1  0.36830000  0.26410000  0.41330000  1
  H  H87  1  0.94730000  0.26290000  0.74020000  1
  H  H88  1  0.44730000  0.23710000  0.75980000  1
  H  H89  1  0.86830000  0.23590000  0.08670000  1
  H  H90  1  0.46610000  0.23230000  0.23010000  1
  H  H91  1  0.12080000  0.20810000  0.01870000  1
  H  H92  1  0.12450000  0.20640000  0.88840000  1
  H  H93  1  0.42540000  0.19940000  0.12890000  1
  H  H94  1  0.66110000  0.17360000  0.05910000  1
  H  H95  1  0.85640000  0.15180000  0.20130000  1
  H  H96  1  0.12350000  0.15060000  0.13510000  1
  H  H97  1  0.42880000  0.14410000  0.32870000  1
  H  H98  1  0.19910000  0.14360000  0.03720000  1
  H  H99  1  0.18360000  0.13480000  0.97220000  1
  H  H100  1  0.61430000  0.13020000  0.55730000  1
  H  H101  1  0.49880000  0.11800000  0.55200000  1
  H  H102  1  0.98580000  0.11110000  0.67810000  1
  H  H103  1  0.72890000  0.09240000  0.02180000  1
  H  H104  1  0.69630000  0.09070000  0.08320000  1
  H  H105  1  0.33990000  0.08340000  0.60390000  1
  H  H106  1  0.08990000  0.07200000  0.68930000  1
  H  H107  1  0.26010000  0.07070000  0.76750000  1
  H  H108  1  0.72190000  0.06020000  0.37730000  1
  H  H109  1  0.56080000  0.05630000  0.58260000  1
  H  H110  1  0.48370000  0.04380000  0.73540000  1
  H  H111  1  0.99300000  0.03140000  0.70920000  1
  H  H112  1  0.97700000  0.02230000  0.17150000  1
  H  H113  1  0.87970000  0.02000000  0.06890000  1
  H  H114  1  0.62810000  0.01930000  0.94200000  1
  H  H115  1  0.40180000  0.00540000  0.84940000  1
  C  C116  1  0.07190000  0.98890000  0.95931000  1
  C  C117  1  0.42340000  0.98780000  0.03413000  1
  C  C118  1  0.08520000  0.98090000  0.81266000  1
  C  C119  1  0.32790000  0.97890000  0.64327000  1
  C  C120  1  0.78380000  0.96934000  0.22111000  1
  C  C121  1  0.55980000  0.96485000  0.29521000  1
  C  C122  1  0.49220000  0.96396000  0.94241000  1
  C  C123  1  0.44050000  0.95059000  0.84173000  1
  C  C124  1  0.41390000  0.94940000  0.97524000  1
  C  C125  1  0.63820000  0.94220000  0.36748000  1
  C  C126  1  0.92690000  0.92820000  0.99492000  1
  C  C127  1  0.00100000  0.92048000  0.95500000  1
  C  C128  1  0.97590000  0.91250000  0.29574000  1
  C  C129  1  0.15230000  0.90970000  0.79589000  1
  C  C130  1  0.32390000  0.89310000  0.95058000  1
  C  C131  1  0.44470000  0.88240000  0.42409000  1
  C  C132  1  0.84880000  0.85370000  0.99138000  1
  C  C133  1  0.91920000  0.85123000  0.19248000  1
  C  C134  1  0.53570000  0.83800000  0.85446000  1
  C  C135  1  0.97000000  0.83720000  0.23882000  1
  C  C136  1  0.51260000  0.82050000  0.79869000  1
  C  C137  1  0.51130000  0.81896000  0.32195000  1
  C  C138  1  0.93200000  0.81238000  0.86634000  1
  C  C139  1  0.45750000  0.80646000  0.36759000  1
  C  C140  1  0.53890000  0.79926000  0.65311000  1
  C  C141  1  0.91190000  0.78154000  0.14115000  1
  C  C142  1  0.07320000  0.76650000  0.89359000  1
  C  C143  1  0.51700000  0.75040000  0.26991000  1
  C  C144  1  0.01700000  0.74960000  0.23009000  1
  C  C145  1  0.57320000  0.73350000  0.60641000  1
  C  C146  1  0.41190000  0.71846000  0.35885000  1
  C  C147  1  0.03890000  0.70074000  0.84689000  1
  C  C148  1  0.95750000  0.69354000  0.13241000  1
  C  C149  1  0.43200000  0.68762000  0.63366000  1
  C  C150  1  0.01130000  0.68104000  0.17805000  1
  C  C151  1  0.01260000  0.67950000  0.70131000  1
  C  C152  1  0.47000000  0.66280000  0.26118000  1
  C  C153  1  0.03570000  0.66200000  0.64554000  1
  C  C154  1  0.41920000  0.64877000  0.30752000  1
  C  C155  1  0.34880000  0.64630000  0.50862000  1
  C  C156  1  0.94470000  0.61760000  0.07591000  1
  C  C157  1  0.82390000  0.60690000  0.54942000  1
  C  C158  1  0.65230000  0.59030000  0.70411000  1
  C  C159  1  0.47590000  0.58750000  0.20426000  1
  C  C160  1  0.50100000  0.57952000  0.54500000  1
  C  C161  1  0.42690000  0.57180000  0.50508000  1
  C  C162  1  0.13820000  0.55780000  0.13252000  1
  C  C163  1  0.91390000  0.55060000  0.52476000  1
  C  C164  1  0.94050000  0.54941000  0.65827000  1
  C  C165  1  0.99220000  0.53604000  0.55759000  1
  C  C166  1  0.05980000  0.53515000  0.20479000  1
  C  C167  1  0.28380000  0.53066000  0.27889000  1
  C  C168  1  0.82790000  0.52110000  0.85673000  1
  C  C169  1  0.58520000  0.51910000  0.68734000  1
  C  C170  1  0.92340000  0.51220000  0.46587000  1
  C  C171  1  0.57190000  0.51110000  0.54069000  1
  C  C172  1  0.42810000  0.48890000  0.45931000  1
  C  C173  1  0.07660000  0.48780000  0.53413000  1
  C  C174  1  0.41480000  0.48090000  0.31266000  1
  C  C175  1  0.17210000  0.47890000  0.14327000  1
  C  C176  1  0.71620000  0.46934000  0.72111000  1
  C  C177  1  0.94020000  0.46485000  0.79521000  1
  C  C178  1  0.00780000  0.46396000  0.44241000  1
  C  C179  1  0.05950000  0.45059000  0.34173000  1
  C  C180  1  0.08610000  0.44940000  0.47524000  1
  C  C181  1  0.86180000  0.44220000  0.86748000  1
  C  C182  1  0.57310000  0.42820000  0.49492000  1
  C  C183  1  0.49900000  0.42048000  0.45500000  1
  C  C184  1  0.52410000  0.41250000  0.79574000  1
  C  C185  1  0.34770000  0.40970000  0.29589000  1
  C  C186  1  0.17610000  0.39310000  0.45058000  1
  C  C187  1  0.05530000  0.38240000  0.92409000  1
  C  C188  1  0.65120000  0.35370000  0.49138000  1
  C  C189  1  0.58080000  0.35123000  0.69248000  1
  C  C190  1  0.96430000  0.33800000  0.35446000  1
  C  C191  1  0.53000000  0.33720000  0.73882000  1
  C  C192  1  0.98740000  0.32050000  0.29869000  1
  C  C193  1  0.98870000  0.31896000  0.82195000  1
  C  C194  1  0.56800000  0.31238000  0.36634000  1
  C  C195  1  0.04250000  0.30646000  0.86759000  1
  C  C196  1  0.96110000  0.29926000  0.15311000  1
  C  C197  1  0.58810000  0.28154000  0.64115000  1
  C  C198  1  0.42680000  0.26650000  0.39359000  1
  C  C199  1  0.98300000  0.25040000  0.76991000  1
  C  C200  1  0.48300000  0.24960000  0.73009000  1
  C  C201  1  0.92680000  0.23350000  0.10641000  1
  C  C202  1  0.08810000  0.21846000  0.85885000  1
  C  C203  1  0.46110000  0.20074000  0.34689000  1
  C  C204  1  0.54250000  0.19354000  0.63241000  1
  C  C205  1  0.06800000  0.18762000  0.13366000  1
  C  C206  1  0.48870000  0.18104000  0.67805000  1
  C  C207  1  0.48740000  0.17950000  0.20131000  1
  C  C208  1  0.03000000  0.16280000  0.76118000  1
  C  C209  1  0.46430000  0.16200000  0.14554000  1
  C  C210  1  0.08080000  0.14877000  0.80752000  1
  C  C211  1  0.15120000  0.14630000  0.00862000  1
  C  C212  1  0.55530000  0.11760000  0.57591000  1
  C  C213  1  0.67610000  0.10690000  0.04942000  1
  C  C214  1  0.84770000  0.09030000  0.20411000  1
  C  C215  1  0.02410000  0.08750000  0.70426000  1
  C  C216  1  0.99900000  0.07952000  0.04500000  1
  C  C217  1  0.07310000  0.07180000  0.00508000  1
  C  C218  1  0.36180000  0.05780000  0.63252000  1
  C  C219  1  0.58610000  0.05060000  0.02476000  1
  C  C220  1  0.55950000  0.04941000  0.15827000  1
  C  C221  1  0.50780000  0.03604000  0.05759000  1
  C  C222  1  0.44020000  0.03515000  0.70479000  1
  C  C223  1  0.21620000  0.03066000  0.77889000  1
  C  C224  1  0.67210000  0.02110000  0.35673000  1
  C  C225  1  0.91480000  0.01910000  0.18734000  1
  C  C226  1  0.57660000  0.01220000  0.96587000  1
  C  C227  1  0.92810000  0.01110000  0.04069000  1
  N  N228  1  0.37728000  0.96429000  0.68907000  1
  N  N229  1  0.87281000  0.94199000  0.19832000  1
  N  N230  1  0.23453000  0.94106000  0.77433000  1
  N  N231  1  0.48978000  0.92240000  0.88168000  1
  N  N232  1  0.56539000  0.90623000  0.32833000  1
  N  N233  1  0.45305000  0.89178000  0.79037000  1
  N  N234  1  0.00394000  0.83741000  0.90591000  1
  N  N235  1  0.45030000  0.77109000  0.66999000  1
  N  N236  1  0.95030000  0.72891000  0.83001000  1
  N  N237  1  0.50394000  0.66259000  0.59409000  1
  N  N238  1  0.95305000  0.60822000  0.70963000  1
  N  N239  1  0.06539000  0.59377000  0.17167000  1
  N  N240  1  0.98978000  0.57760000  0.61832000  1
  N  N241  1  0.73453000  0.55894000  0.72567000  1
  N  N242  1  0.37281000  0.55801000  0.30168000  1
  N  N243  1  0.87728000  0.53571000  0.81093000  1
  N  N244  1  0.12272000  0.46429000  0.18907000  1
  N  N245  1  0.62719000  0.44199000  0.69832000  1
  N  N246  1  0.26547000  0.44106000  0.27433000  1
  N  N247  1  0.01022000  0.42240000  0.38168000  1
  N  N248  1  0.93461000  0.40623000  0.82833000  1
  N  N249  1  0.04695000  0.39178000  0.29037000  1
  N  N250  1  0.49606000  0.33741000  0.40591000  1
  N  N251  1  0.04970000  0.27109000  0.16999000  1
  N  N252  1  0.54970000  0.22891000  0.33001000  1
  N  N253  1  0.99606000  0.16259000  0.09409000  1
  N  N254  1  0.54695000  0.10822000  0.20963000  1
  N  N255  1  0.43461000  0.09377000  0.67167000  1
  N  N256  1  0.51022000  0.07760000  0.11832000  1
  N  N257  1  0.76547000  0.05894000  0.22567000  1
  N  N258  1  0.12719000  0.05801000  0.80168000  1
  N  N259  1  0.62272000  0.03571000  0.31093000  1
