# generated using pymatgen
data_FeH8Au2(C2N)8
_symmetry_space_group_name_H-M   'P 1'
_cell_length_a   9.94060000
_cell_length_b   15.82820952
_cell_length_c   15.82820952
_cell_angle_alpha   115.73840202
_cell_angle_beta   102.08388450
_cell_angle_gamma   102.08388450
_symmetry_Int_Tables_number   1
_chemical_formula_structural   FeH8Au2(C2N)8
_chemical_formula_sum   'Fe3 H24 Au6 C48 N24'
_cell_volume   2062.26430646
_cell_formula_units_Z   3
loop_
 _symmetry_equiv_pos_site_id
 _symmetry_equiv_pos_as_xyz
  1  'x, y, z'
loop_
 _atom_site_type_symbol
 _atom_site_label
 _atom_site_symmetry_multiplicity
 _atom_site_fract_x
 _atom_site_fract_y
 _atom_site_fract_z
 _atom_site_occupancy
  Au  Au0  1  1.00000000  0.70827000  0.29173000  1
  Au  Au1  1  1.00000000  0.29173000  0.70827000  1
  Au  Au2  1  0.70827000  0.70827000  0.41654000  1
  Au  Au3  1  0.70827000  0.41654000  0.70827000  1
  Au  Au4  1  0.29173000  0.58346000  0.29173000  1
  Au  Au5  1  0.29173000  0.29173000  0.58346000  1
  C  C6  1  0.79330000  0.60710000  0.42510000  1
  C  C7  1  0.79330000  0.42510000  0.60710000  1
  C  C8  1  0.36900000  0.00000000  0.08500000  1
  C  C9  1  0.36900000  0.08500000  1.00000000  1
  C  C10  1  0.37470000  0.91170000  0.18170000  1
  C  C11  1  0.37470000  0.18170000  0.91170000  1
  C  C12  1  0.71600000  0.08500000  0.08500000  1
  C  C13  1  0.40010000  0.00000000  0.18010000  1
  C  C14  1  0.40010000  0.18010000  0.00000000  1
  C  C15  1  0.40440000  0.91570000  0.27130000  1
  C  C16  1  0.40440000  0.27130000  0.91570000  1
  C  C17  1  0.18620000  0.81800000  0.39290000  1
  C  C18  1  0.18620000  0.39290000  0.81800000  1
  C  C19  1  0.63180000  0.81800000  0.42510000  1
  C  C20  1  0.63180000  0.42510000  0.81800000  1
  C  C21  1  0.46300000  0.08830000  0.27000000  1
  C  C22  1  0.46300000  0.27000000  0.08830000  1
  C  C23  1  0.78000000  0.18010000  0.18010000  1
  C  C24  1  0.13310000  0.72870000  0.64440000  1
  C  C25  1  0.13310000  0.64440000  0.72870000  1
  C  C26  1  0.48870000  0.08430000  0.35560000  1
  C  C27  1  0.48870000  0.35560000  0.08430000  1
  C  C28  1  0.80700000  0.27000000  0.18170000  1
  C  C29  1  0.80700000  0.18170000  0.27000000  1
  C  C30  1  0.19300000  0.81830000  0.73000000  1
  C  C31  1  0.19300000  0.73000000  0.81830000  1
  C  C32  1  0.51130000  0.91570000  0.64440000  1
  C  C33  1  0.51130000  0.64440000  0.91570000  1
  C  C34  1  0.86690000  0.35560000  0.27130000  1
  C  C35  1  0.86690000  0.27130000  0.35560000  1
  C  C36  1  0.22000000  0.81990000  0.81990000  1
  C  C37  1  0.53700000  0.91170000  0.73000000  1
  C  C38  1  0.53700000  0.73000000  0.91170000  1
  C  C39  1  0.36820000  0.18200000  0.57490000  1
  C  C40  1  0.36820000  0.57490000  0.18200000  1
  C  C41  1  0.81380000  0.18200000  0.60710000  1
  C  C42  1  0.81380000  0.60710000  0.18200000  1
  C  C43  1  0.59560000  0.08430000  0.72870000  1
  C  C44  1  0.59560000  0.72870000  0.08430000  1
  C  C45  1  0.59990000  0.00000000  0.81990000  1
  C  C46  1  0.59990000  0.81990000  1.00000000  1
  C  C47  1  0.28400000  0.91500000  0.91500000  1
  C  C48  1  0.62530000  0.08830000  0.81830000  1
  C  C49  1  0.62530000  0.81830000  0.08830000  1
  C  C50  1  0.63100000  0.00000000  0.91500000  1
  C  C51  1  0.63100000  0.91500000  1.00000000  1
  C  C52  1  0.20670000  0.57490000  0.39290000  1
  C  C53  1  0.20670000  0.39290000  0.57490000  1
  Fe  Fe54  1  1.00000000  0.50000000  0.50000000  1
  Fe  Fe55  1  0.50000000  1.00000000  0.50000000  1
  Fe  Fe56  1  0.50000000  0.50000000  1.00000000  1
  H  H57  1  0.66190000  0.87730000  0.14930000  1
  H  H58  1  0.66190000  0.14930000  0.87730000  1
  H  H59  1  0.38500000  0.85550000  0.27120000  1
  H  H60  1  0.38500000  0.27120000  0.85550000  1
  H  H61  1  0.11380000  0.72880000  0.58430000  1
  H  H62  1  0.11380000  0.58430000  0.72880000  1
  H  H63  1  0.78460000  0.12270000  0.27200000  1
  H  H64  1  0.78460000  0.27200000  0.12270000  1
  H  H65  1  0.48740000  0.27200000  0.14930000  1
  H  H66  1  0.48740000  0.14930000  0.27200000  1
  H  H67  1  0.47050000  0.85550000  0.58430000  1
  H  H68  1  0.47050000  0.58430000  0.85550000  1
  H  H69  1  0.52950000  0.14450000  0.41570000  1
  H  H70  1  0.52950000  0.41570000  0.14450000  1
  H  H71  1  0.51260000  0.85070000  0.72800000  1
  H  H72  1  0.51260000  0.72800000  0.85070000  1
  H  H73  1  0.21540000  0.87730000  0.72800000  1
  H  H74  1  0.21540000  0.72800000  0.87730000  1
  H  H75  1  0.88620000  0.41570000  0.27120000  1
  H  H76  1  0.88620000  0.27120000  0.41570000  1
  H  H77  1  0.61500000  0.14450000  0.72880000  1
  H  H78  1  0.61500000  0.72880000  0.14450000  1
  H  H79  1  0.33810000  0.12270000  0.85070000  1
  H  H80  1  0.33810000  0.85070000  0.12270000  1
  N  N81  1  0.84830000  0.55910000  0.44190000  1
  N  N82  1  0.84830000  0.44190000  0.55910000  1
  N  N83  1  0.69365000  0.00000000  0.09095000  1
  N  N84  1  0.69365000  0.09095000  1.00000000  1
  N  N85  1  0.39730000  0.09095000  0.09095000  1
  N  N86  1  0.09970000  0.64020000  0.64020000  1
  N  N87  1  0.28920000  0.88280000  0.44090000  1
  N  N88  1  0.28920000  0.44090000  0.88280000  1
  N  N89  1  0.59360000  0.88280000  0.44190000  1
  N  N90  1  0.59360000  0.44190000  0.88280000  1
  N  N91  1  0.45950000  1.00000000  0.35980000  1
  N  N92  1  0.45950000  0.35980000  1.00000000  1
  N  N93  1  0.54050000  1.00000000  0.64020000  1
  N  N94  1  0.54050000  0.64020000  1.00000000  1
  N  N95  1  0.40640000  0.11720000  0.55810000  1
  N  N96  1  0.40640000  0.55810000  0.11720000  1
  N  N97  1  0.71080000  0.11720000  0.55910000  1
  N  N98  1  0.71080000  0.55910000  0.11720000  1
  N  N99  1  0.90030000  0.35980000  0.35980000  1
  N  N100  1  0.60270000  0.90905000  0.90905000  1
  N  N101  1  0.30635000  1.00000000  0.90905000  1
  N  N102  1  0.30635000  0.90905000  1.00000000  1
  N  N103  1  0.15170000  0.55810000  0.44090000  1
  N  N104  1  0.15170000  0.44090000  0.55810000  1
