# generated using pymatgen
data_Cd2H22C27(N5O3)2
_symmetry_space_group_name_H-M   'P 1'
_cell_length_a   9.31520000
_cell_length_b   10.92880000
_cell_length_c   19.01572428
_cell_angle_alpha   93.53189021
_cell_angle_beta   104.17794141
_cell_angle_gamma   90.00000000
_symmetry_Int_Tables_number   1
_chemical_formula_structural   Cd2H22C27(N5O3)2
_chemical_formula_sum   'Cd4 H44 C54 N20 O12'
_cell_volume   1873.11604222
_cell_formula_units_Z   2
loop_
 _symmetry_equiv_pos_site_id
 _symmetry_equiv_pos_as_xyz
  1  'x, y, z'
loop_
 _atom_site_type_symbol
 _atom_site_label
 _atom_site_symmetry_multiplicity
 _atom_site_fract_x
 _atom_site_fract_y
 _atom_site_fract_z
 _atom_site_occupancy
  C  C0  1  0.02600000  0.75000000  1.00000000  1
  C  C1  1  0.97400000  0.25000000  0.00000000  1
  C  C2  1  0.21640000  0.97140000  0.00680000  1
  C  C3  1  0.79040000  0.47140000  0.00680000  1
  C  C4  1  0.30870000  0.06940000  0.00940000  1
  C  C5  1  0.70070000  0.56940000  0.00940000  1
  C  C6  1  0.41820000  0.40390000  0.04640000  1
  C  C7  1  0.62820000  0.90390000  0.04640000  1
  C  C8  1  0.23590000  0.60740000  0.05780000  1
  C  C9  1  0.82190000  0.10740000  0.05780000  1
  C  C10  1  0.15150000  0.71060000  0.06500000  1
  C  C11  1  0.91350000  0.21060000  0.06500000  1
  C  C12  1  0.44170000  0.47660000  0.11140000  1
  C  C13  1  0.66970000  0.97660000  0.11140000  1
  C  C14  1  0.34990000  0.57810000  0.11780000  1
  C  C15  1  0.76790000  0.07810000  0.11780000  1
  C  C16  1  0.16540000  0.77260000  0.13080000  1
  C  C17  1  0.96540000  0.27260000  0.13080000  1
  C  C18  1  0.37490000  0.65200000  0.18380000  1
  C  C19  1  0.80890000  0.15200000  0.18380000  1
  C  C20  1  0.28060000  0.74530000  0.19120000  1
  C  C21  1  0.91060000  0.24530000  0.19120000  1
  C  C22  1  0.30520000  0.81030000  0.26440000  1
  C  C23  1  0.95920000  0.31030000  0.26440000  1
  C  C24  1  0.22260000  0.63180000  0.41740000  1
  C  C25  1  0.19480000  0.13180000  0.41740000  1
  C  C26  1  0.33290000  0.26260000  0.48940000  1
  C  C27  1  0.15650000  0.76260000  0.48940000  1
  C  C28  1  0.66710000  0.73740000  0.51060000  1
  C  C29  1  0.84350000  0.23740000  0.51060000  1
  C  C30  1  0.77740000  0.36820000  0.58260000  1
  C  C31  1  0.80520000  0.86820000  0.58260000  1
  C  C32  1  0.69480000  0.18970000  0.73560000  1
  C  C33  1  0.04080000  0.68970000  0.73560000  1
  C  C34  1  0.71940000  0.25470000  0.80880000  1
  C  C35  1  0.08940000  0.75470000  0.80880000  1
  C  C36  1  0.62510000  0.34800000  0.81620000  1
  C  C37  1  0.19110000  0.84800000  0.81620000  1
  C  C38  1  0.83460000  0.22740000  0.86920000  1
  C  C39  1  0.03460000  0.72740000  0.86920000  1
  C  C40  1  0.65010000  0.42190000  0.88220000  1
  C  C41  1  0.23210000  0.92190000  0.88220000  1
  C  C42  1  0.55830000  0.52340000  0.88860000  1
  C  C43  1  0.33030000  0.02340000  0.88860000  1
  C  C44  1  0.84850000  0.28940000  0.93500000  1
  C  C45  1  0.08650000  0.78940000  0.93500000  1
  C  C46  1  0.76410000  0.39260000  0.94220000  1
  C  C47  1  0.17810000  0.89260000  0.94220000  1
  C  C48  1  0.58180000  0.59610000  0.95360000  1
  C  C49  1  0.37180000  0.09610000  0.95360000  1
  C  C50  1  0.69130000  0.93060000  0.99060000  1
  C  C51  1  0.29930000  0.43060000  0.99060000  1
  C  C52  1  0.78360000  0.02860000  0.99320000  1
  C  C53  1  0.20960000  0.52860000  0.99320000  1
  Cd  Cd54  1  0.40141000  0.89579000  0.41498000  1
  Cd  Cd55  1  0.01357000  0.39579000  0.41498000  1
  Cd  Cd56  1  0.59859000  0.10421000  0.58502000  1
  Cd  Cd57  1  0.98643000  0.60421000  0.58502000  1
  H  H58  1  0.04350000  0.31780000  0.01660000  1
  H  H59  1  0.97310000  0.81780000  0.01660000  1
  H  H60  1  0.48100000  0.33960000  0.04100000  1
  H  H61  1  0.56000000  0.83960000  0.04100000  1
  H  H62  1  0.17970000  0.95610000  0.04660000  1
  H  H63  1  0.86690000  0.45610000  0.04660000  1
  H  H64  1  0.33050000  0.12140000  0.05140000  1
  H  H65  1  0.72090000  0.62140000  0.05140000  1
  H  H66  1  0.51870000  0.45840000  0.15080000  1
  H  H67  1  0.63210000  0.95840000  0.15080000  1
  H  H68  1  0.09560000  0.89950000  0.18060000  1
  H  H69  1  0.08500000  0.39950000  0.18060000  1
  H  H70  1  0.45460000  0.63690000  0.22200000  1
  H  H71  1  0.76740000  0.13690000  0.22200000  1
  H  H72  1  0.34010000  0.61850000  0.34600000  1
  H  H73  1  0.00590000  0.11850000  0.34600000  1
  H  H74  1  0.28070000  0.49770000  0.35920000  1
  H  H75  1  0.07850000  0.99770000  0.35920000  1
  H  H76  1  0.53010000  0.62190000  0.44640000  1
  H  H77  1  0.91630000  0.12190000  0.44640000  1
  H  H78  1  0.66630000  0.56210000  0.48720000  1
  H  H79  1  0.82090000  0.06210000  0.48720000  1
  H  H80  1  0.33370000  0.43790000  0.51280000  1
  H  H81  1  0.17910000  0.93790000  0.51280000  1
  H  H82  1  0.46990000  0.37810000  0.55360000  1
  H  H83  1  0.08370000  0.87810000  0.55360000  1
  H  H84  1  0.71930000  0.50230000  0.64080000  1
  H  H85  1  0.92150000  0.00230000  0.64080000  1
  H  H86  1  0.65990000  0.38150000  0.65400000  1
  H  H87  1  0.99410000  0.88150000  0.65400000  1
  H  H88  1  0.54540000  0.36310000  0.77800000  1
  H  H89  1  0.23260000  0.86310000  0.77800000  1
  H  H90  1  0.90440000  0.10050000  0.81940000  1
  H  H91  1  0.91500000  0.60050000  0.81940000  1
  H  H92  1  0.48130000  0.54160000  0.84920000  1
  H  H93  1  0.36790000  0.04160000  0.84920000  1
  H  H94  1  0.66950000  0.87860000  0.94860000  1
  H  H95  1  0.27910000  0.37860000  0.94860000  1
  H  H96  1  0.82030000  0.04390000  0.95340000  1
  H  H97  1  0.13310000  0.54390000  0.95340000  1
  H  H98  1  0.51900000  0.66040000  0.95900000  1
  H  H99  1  0.44000000  0.16040000  0.95900000  1
  H  H100  1  0.95650000  0.68220000  0.98340000  1
  H  H101  1  0.02690000  0.18220000  0.98340000  1
  N  N102  1  0.28940000  0.57580000  0.36820000  1
  N  N103  1  0.07880000  0.07580000  0.36820000  1
  N  N104  1  0.23760000  0.75000000  0.43880000  1
  N  N105  1  0.20120000  0.25000000  0.43880000  1
  N  N106  1  0.30830000  0.07040000  0.45240000  1
  N  N107  1  0.14410000  0.57040000  0.45240000  1
  N  N108  1  0.61470000  0.62690000  0.47720000  1
  N  N109  1  0.86250000  0.12690000  0.47720000  1
  N  N110  1  0.59680000  0.84290000  0.49920000  1
  N  N111  1  0.90240000  0.34290000  0.49920000  1
  N  N112  1  0.40320000  0.15710000  0.50080000  1
  N  N113  1  0.09760000  0.65710000  0.50080000  1
  N  N114  1  0.38530000  0.37310000  0.52280000  1
  N  N115  1  0.13750000  0.87310000  0.52280000  1
  N  N116  1  0.69170000  0.92960000  0.54760000  1
  N  N117  1  0.85590000  0.42960000  0.54760000  1
  N  N118  1  0.76240000  0.25000000  0.56120000  1
  N  N119  1  0.79880000  0.75000000  0.56120000  1
  N  N120  1  0.71060000  0.42420000  0.63180000  1
  N  N121  1  0.92120000  0.92420000  0.63180000  1
  O  O122  1  0.07450000  0.87160000  0.13820000  1
  O  O123  1  0.06370000  0.37160000  0.13820000  1
  O  O124  1  0.21470000  0.89420000  0.27460000  1
  O  O125  1  0.05990000  0.39420000  0.27460000  1
  O  O126  1  0.41080000  0.78240000  0.31540000  1
  O  O127  1  0.90460000  0.28240000  0.31540000  1
  O  O128  1  0.58920000  0.21760000  0.68460000  1
  O  O129  1  0.09540000  0.71760000  0.68460000  1
  O  O130  1  0.78530000  0.10580000  0.72540000  1
  O  O131  1  0.94010000  0.60580000  0.72540000  1
  O  O132  1  0.92550000  0.12840000  0.86180000  1
  O  O133  1  0.93630000  0.62840000  0.86180000  1
