# generated using pymatgen
data_MgH6C8S2(NO)4
_symmetry_space_group_name_H-M   'P 1'
_cell_length_a   7.60670000
_cell_length_b   12.58408552
_cell_length_c   12.58408552
_cell_angle_alpha   84.75895707
_cell_angle_beta   72.40811323
_cell_angle_gamma   72.40811323
_symmetry_Int_Tables_number   1
_chemical_formula_structural   MgH6C8S2(NO)4
_chemical_formula_sum   'Mg2 H12 C16 S4 N8 O8'
_cell_volume   1094.55649110
_cell_formula_units_Z   2
loop_
 _symmetry_equiv_pos_site_id
 _symmetry_equiv_pos_as_xyz
  1  'x, y, z'
loop_
 _atom_site_type_symbol
 _atom_site_label
 _atom_site_symmetry_multiplicity
 _atom_site_fract_x
 _atom_site_fract_y
 _atom_site_fract_z
 _atom_site_occupancy
  C  C0  1  0.32580000  0.31300000  0.67940000  1
  C  C1  1  0.43180000  0.17940000  0.81300000  1
  C  C2  1  0.42080000  0.20420000  0.70420000  1
  C  C3  1  0.49660000  0.62840000  0.12840000  1
  C  C4  1  0.75520000  0.81300000  0.82060000  1
  C  C5  1  0.36120000  0.32060000  0.31300000  1
  C  C6  1  0.87500000  0.70420000  0.79580000  1
  C  C7  1  0.37500000  0.29580000  0.20420000  1
  C  C8  1  0.37500000  0.12840000  0.37160000  1
  C  C9  1  0.87500000  0.87160000  0.62840000  1
  C  C10  1  0.99480000  0.67940000  0.68700000  1
  C  C11  1  0.38880000  0.18700000  0.17940000  1
  C  C12  1  0.25340000  0.37160000  0.87160000  1
  C  C13  1  0.32920000  0.79580000  0.29580000  1
  C  C14  1  0.42420000  0.82060000  0.18700000  1
  C  C15  1  0.31820000  0.68700000  0.32060000  1
  H  H16  1  0.47560000  0.14940000  0.64940000  1
  H  H17  1  0.55340000  0.75360000  0.04240000  1
  H  H18  1  0.40060000  0.54240000  0.25360000  1
  H  H19  1  0.34580000  0.25360000  0.45760000  1
  H  H20  1  0.69300000  0.95760000  0.75360000  1
  H  H21  1  0.87500000  0.64940000  0.85060000  1
  H  H22  1  0.37500000  0.35060000  0.14940000  1
  H  H23  1  0.40420000  0.04240000  0.24640000  1
  H  H24  1  0.05700000  0.74640000  0.54240000  1
  H  H25  1  0.19660000  0.45760000  0.74640000  1
  H  H26  1  0.34940000  0.24640000  0.95760000  1
  H  H27  1  0.27440000  0.85060000  0.35060000  1
  Mg  Mg28  1  0.50000000  0.00000000  0.00000000  1
  Mg  Mg29  1  0.25000000  0.50000000  0.50000000  1
  N  N30  1  0.49930000  0.73650000  0.10950000  1
  N  N31  1  0.40470000  0.60950000  0.23650000  1
  N  N32  1  0.35880000  0.23650000  0.39050000  1
  N  N33  1  0.76420000  0.89050000  0.73650000  1
  N  N34  1  0.39120000  0.10950000  0.26350000  1
  N  N35  1  0.98580000  0.76350000  0.60950000  1
  N  N36  1  0.25070000  0.39050000  0.76350000  1
  N  N37  1  0.34530000  0.26350000  0.89050000  1
  O  O38  1  0.30170000  0.34590000  0.58450000  1
  O  O39  1  0.51790000  0.08450000  0.84590000  1
  O  O40  1  0.63620000  0.84590000  0.91550000  1
  O  O41  1  0.35240000  0.41550000  0.34590000  1
  O  O42  1  0.11380000  0.58450000  0.65410000  1
  O  O43  1  0.39760000  0.15410000  0.08450000  1
  O  O44  1  0.44830000  0.91550000  0.15410000  1
  O  O45  1  0.23210000  0.65410000  0.41550000  1
  S  S46  1  0.59257000  0.53243000  0.03243000  1
  S  S47  1  0.37500000  0.03243000  0.46757000  1
  S  S48  1  0.87500000  0.96757000  0.53243000  1
  S  S49  1  0.15743000  0.46757000  0.96757000  1
