# generated using pymatgen
data_Cd2H14C24N4Cl4O9
_symmetry_space_group_name_H-M   'P 1'
_cell_length_a   11.45450000
_cell_length_b   11.45450000
_cell_length_c   15.07770000
_cell_angle_alpha   109.62100000
_cell_angle_beta   109.62100000
_cell_angle_gamma   96.58340000
_symmetry_Int_Tables_number   1
_chemical_formula_structural   Cd2H14C24N4Cl4O9
_chemical_formula_sum   'Cd4 H28 C48 N8 Cl8 O18'
_cell_volume   1696.57502902
_cell_formula_units_Z   2
loop_
 _symmetry_equiv_pos_site_id
 _symmetry_equiv_pos_as_xyz
  1  'x, y, z'
loop_
 _atom_site_type_symbol
 _atom_site_label
 _atom_site_symmetry_multiplicity
 _atom_site_fract_x
 _atom_site_fract_y
 _atom_site_fract_z
 _atom_site_occupancy
  Cd  Cd0  1  0.73316000  0.99602000  0.21380000  1
  Cd  Cd1  1  0.99602000  0.73316000  0.71380000  1
  Cd  Cd2  1  0.00398000  0.26684000  0.28620000  1
  Cd  Cd3  1  0.26684000  0.00398000  0.78620000  1
  H  H4  1  0.05140000  0.99780000  0.80690000  1
  H  H5  1  0.48750000  0.98430000  0.69600000  1
  H  H6  1  0.00220000  0.94860000  0.69310000  1
  H  H7  1  0.81640000  0.93160000  0.40940000  1
  H  H8  1  0.47670000  0.89490000  0.01910000  1
  H  H9  1  0.16100000  0.88380000  0.07930000  1
  H  H10  1  0.11620000  0.83900000  0.42070000  1
  H  H11  1  0.93160000  0.81640000  0.90940000  1
  H  H12  1  0.55840000  0.75480000  0.85670000  1
  H  H13  1  0.66280000  0.67780000  0.12700000  1
  H  H14  1  0.67780000  0.66280000  0.62700000  1
  H  H15  1  0.75480000  0.55840000  0.35670000  1
  H  H16  1  0.10510000  0.52330000  0.48090000  1
  H  H17  1  0.01570000  0.51250000  0.80400000  1
  H  H18  1  0.98430000  0.48750000  0.19600000  1
  H  H19  1  0.89490000  0.47670000  0.51910000  1
  H  H20  1  0.24520000  0.44160000  0.64330000  1
  H  H21  1  0.32220000  0.33720000  0.37300000  1
  H  H22  1  0.33720000  0.32220000  0.87300000  1
  H  H23  1  0.44160000  0.24520000  0.14330000  1
  H  H24  1  0.06840000  0.18360000  0.09060000  1
  H  H25  1  0.88380000  0.16100000  0.57930000  1
  H  H26  1  0.83900000  0.11620000  0.92070000  1
  H  H27  1  0.52330000  0.10510000  0.98090000  1
  H  H28  1  0.18360000  0.06840000  0.59060000  1
  H  H29  1  0.99780000  0.05140000  0.30690000  1
  H  H30  1  0.51250000  0.01570000  0.30400000  1
  H  H31  1  0.94860000  0.00220000  0.19310000  1
  C  C32  1  0.46040000  0.98140000  0.23420000  1
  C  C33  1  0.32860000  0.95620000  0.20360000  1
  C  C34  1  0.43880000  0.90980000  0.06630000  1
  C  C35  1  0.24970000  0.90390000  0.10100000  1
  C  C36  1  0.30640000  0.88160000  0.03030000  1
  C  C37  1  0.79250000  0.85210000  0.01770000  1
  C  C38  1  0.78610000  0.84610000  0.36330000  1
  C  C39  1  0.23000000  0.83520000  0.91600000  1
  C  C40  1  0.75170000  0.79310000  0.90240000  1
  C  C41  1  0.85210000  0.79250000  0.51770000  1
  C  C42  1  0.84610000  0.78610000  0.86330000  1
  C  C43  1  0.16480000  0.77000000  0.58400000  1
  C  C44  1  0.79310000  0.75170000  0.40240000  1
  C  C45  1  0.62440000  0.75040000  0.83370000  1
  C  C46  1  0.09610000  0.75030000  0.39900000  1
  C  C47  1  0.59870000  0.70090000  0.73050000  1
  C  C48  1  0.69610000  0.69730000  0.19720000  1
  C  C49  1  0.69730000  0.69610000  0.69720000  1
  C  C50  1  0.11840000  0.69360000  0.46970000  1
  C  C51  1  0.04380000  0.67140000  0.29640000  1
  C  C52  1  0.75040000  0.62440000  0.33370000  1
  C  C53  1  0.70090000  0.59870000  0.23050000  1
  C  C54  1  0.09020000  0.56120000  0.43370000  1
  C  C55  1  0.01860000  0.53960000  0.26580000  1
  C  C56  1  0.98140000  0.46040000  0.73420000  1
  C  C57  1  0.90980000  0.43880000  0.56630000  1
  C  C58  1  0.29910000  0.40130000  0.76950000  1
  C  C59  1  0.24960000  0.37560000  0.66630000  1
  C  C60  1  0.95620000  0.32860000  0.70360000  1
  C  C61  1  0.88160000  0.30640000  0.53030000  1
  C  C62  1  0.30270000  0.30390000  0.30280000  1
  C  C63  1  0.30390000  0.30270000  0.80280000  1
  C  C64  1  0.40130000  0.29910000  0.26950000  1
  C  C65  1  0.90390000  0.24970000  0.60100000  1
  C  C66  1  0.37560000  0.24960000  0.16630000  1
  C  C67  1  0.20690000  0.24830000  0.59760000  1
  C  C68  1  0.83520000  0.23000000  0.41600000  1
  C  C69  1  0.15390000  0.21390000  0.13670000  1
  C  C70  1  0.14790000  0.20750000  0.48230000  1
  C  C71  1  0.24830000  0.20690000  0.09760000  1
  C  C72  1  0.77000000  0.16480000  0.08400000  1
  C  C73  1  0.21390000  0.15390000  0.63670000  1
  C  C74  1  0.20750000  0.14790000  0.98230000  1
  C  C75  1  0.69360000  0.11840000  0.96970000  1
  C  C76  1  0.75030000  0.09610000  0.89900000  1
  C  C77  1  0.56120000  0.09020000  0.93370000  1
  C  C78  1  0.67140000  0.04380000  0.79640000  1
  C  C79  1  0.53960000  0.01860000  0.76580000  1
  N  N80  1  0.51480000  0.95800000  0.16720000  1
  N  N81  1  0.73840000  0.82000000  0.26340000  1
  N  N82  1  0.82000000  0.73840000  0.76340000  1
  N  N83  1  0.95800000  0.51480000  0.66720000  1
  N  N84  1  0.04200000  0.48520000  0.33280000  1
  N  N85  1  0.18000000  0.26160000  0.23660000  1
  N  N86  1  0.26160000  0.18000000  0.73660000  1
  N  N87  1  0.48520000  0.04200000  0.83280000  1
  Cl  Cl88  1  0.26719000  0.99585000  0.29716000  1
  Cl  Cl89  1  0.00415000  0.73281000  0.20284000  1
  Cl  Cl90  1  0.44142000  0.64702000  0.63980000  1
  Cl  Cl91  1  0.35298000  0.55858000  0.86020000  1
  Cl  Cl92  1  0.64702000  0.44142000  0.13980000  1
  Cl  Cl93  1  0.55858000  0.35298000  0.36020000  1
  Cl  Cl94  1  0.99585000  0.26719000  0.79716000  1
  Cl  Cl95  1  0.73281000  0.00415000  0.70284000  1
  O  O96  1  0.05100000  0.94900000  0.75000000  1
  O  O97  1  0.89320000  0.91100000  0.57060000  1
  O  O98  1  0.91100000  0.89320000  0.07060000  1
  O  O99  1  0.22560000  0.88440000  0.61920000  1
  O  O100  1  0.28819000  0.86221000  0.86600000  1
  O  O101  1  0.70531000  0.85549000  0.05040000  1
  O  O102  1  0.11560000  0.77440000  0.88080000  1
  O  O103  1  0.13779000  0.71181000  0.63400000  1
  O  O104  1  0.85549000  0.70531000  0.55040000  1
  O  O105  1  0.14451000  0.29469000  0.44960000  1
  O  O106  1  0.86221000  0.28819000  0.36600000  1
  O  O107  1  0.88440000  0.22560000  0.11920000  1
  O  O108  1  0.29469000  0.14451000  0.94960000  1
  O  O109  1  0.71181000  0.13779000  0.13400000  1
  O  O110  1  0.77440000  0.11560000  0.38080000  1
  O  O111  1  0.08900000  0.10680000  0.92940000  1
  O  O112  1  0.10680000  0.08900000  0.42940000  1
  O  O113  1  0.94900000  0.05100000  0.25000000  1
