# generated using pymatgen
data_MnHC4O3
_symmetry_space_group_name_H-M   'P 1'
_cell_length_a   7.06760000
_cell_length_b   15.36044918
_cell_length_c   15.36044918
_cell_angle_alpha   117.69180666
_cell_angle_beta   98.82240433
_cell_angle_gamma   98.82240433
_symmetry_Int_Tables_number   1
_chemical_formula_structural   MnHC4O3
_chemical_formula_sum   'Mn6 H6 C24 O18'
_cell_volume   1410.17308983
_cell_formula_units_Z   6
loop_
 _symmetry_equiv_pos_site_id
 _symmetry_equiv_pos_as_xyz
  1  'x, y, z'
loop_
 _atom_site_type_symbol
 _atom_site_label
 _atom_site_symmetry_multiplicity
 _atom_site_fract_x
 _atom_site_fract_y
 _atom_site_fract_z
 _atom_site_occupancy
  C  C0  1  0.90190000  0.46860000  0.55210000  1
  C  C1  1  0.92280000  0.56370000  0.46570000  1
  C  C2  1  0.77080000  0.43390000  0.60450000  1
  C  C3  1  0.82630000  0.52840000  0.51870000  1
  C  C4  1  0.16630000  0.39550000  0.82940000  1
  C  C5  1  0.66310000  0.82940000  0.43390000  1
  C  C6  1  0.35910000  0.90200000  0.43630000  1
  C  C7  1  0.34980000  0.44790000  0.91650000  1
  C  C8  1  0.54290000  0.46570000  0.90200000  1
  C  C9  1  0.56670000  0.91650000  0.46860000  1
  C  C10  1  0.29790000  0.99030000  0.47160000  1
  C  C11  1  0.30760000  0.48130000  0.00970000  1
  C  C12  1  0.69240000  0.51870000  0.99030000  1
  C  C13  1  0.70210000  0.00970000  0.52840000  1
  C  C14  1  0.43330000  0.08350000  0.53140000  1
  C  C15  1  0.45710000  0.53430000  0.09800000  1
  C  C16  1  0.65020000  0.55210000  0.08350000  1
  C  C17  1  0.64090000  0.09800000  0.56370000  1
  C  C18  1  0.33690000  0.17060000  0.56610000  1
  C  C19  1  0.83370000  0.60450000  0.17060000  1
  C  C20  1  0.17370000  0.47160000  0.48130000  1
  C  C21  1  0.22920000  0.56610000  0.39550000  1
  C  C22  1  0.07720000  0.43630000  0.53430000  1
  C  C23  1  0.09810000  0.53140000  0.44790000  1
  H  H24  1  0.69019000  0.55236000  0.52993000  1
  H  H25  1  0.13783000  0.97757000  0.44764000  1
  H  H26  1  0.16026000  0.47007000  0.02243000  1
  H  H27  1  0.83974000  0.52993000  0.97757000  1
  H  H28  1  0.86217000  0.02243000  0.55236000  1
  H  H29  1  0.30981000  0.44764000  0.47007000  1
  Mn  Mn30  1  0.71130000  0.32110000  0.73180000  1
  Mn  Mn31  1  0.39020000  0.41070000  0.67890000  1
  Mn  Mn32  1  0.02050000  0.73180000  0.41070000  1
  Mn  Mn33  1  0.97950000  0.26820000  0.58930000  1
  Mn  Mn34  1  0.60980000  0.58930000  0.32110000  1
  Mn  Mn35  1  0.28870000  0.67890000  0.26820000  1
  O  O36  1  0.80670000  0.37810000  0.64200000  1
  O  O37  1  0.87730000  0.62990000  0.43700000  1
  O  O38  1  0.62230000  0.46830000  0.62260000  1
  O  O39  1  0.16470000  0.35800000  0.73610000  1
  O  O40  1  0.57140000  0.73610000  0.37810000  1
  O  O41  1  0.24740000  0.80710000  0.37010000  1
  O  O42  1  0.99970000  0.37740000  0.84570000  1
  O  O43  1  0.55970000  0.43700000  0.80710000  1
  O  O44  1  0.84600000  0.84570000  0.46830000  1
  O  O45  1  0.15400000  0.15430000  0.53170000  1
  O  O46  1  0.44030000  0.56300000  0.19290000  1
  O  O47  1  0.00030000  0.62260000  0.15430000  1
  O  O48  1  0.75260000  0.19290000  0.62990000  1
  O  O49  1  0.42860000  0.26390000  0.62190000  1
  O  O50  1  0.83530000  0.64200000  0.26390000  1
  O  O51  1  0.37770000  0.53170000  0.37740000  1
  O  O52  1  0.12270000  0.37010000  0.56300000  1
  O  O53  1  0.19330000  0.62190000  0.35800000  1
