# generated using pymatgen
data_TbH27C21(NO)6
_symmetry_space_group_name_H-M   'P 1'
_cell_length_a   7.94800000
_cell_length_b   16.17600000
_cell_length_c   27.27800000
_cell_angle_alpha   93.50000000
_cell_angle_beta   90.00000000
_cell_angle_gamma   90.00000000
_symmetry_Int_Tables_number   1
_chemical_formula_structural   TbH27C21(NO)6
_chemical_formula_sum   'Tb4 H108 C84 N24 O24'
_cell_volume   3500.50513112
_cell_formula_units_Z   4
loop_
 _symmetry_equiv_pos_site_id
 _symmetry_equiv_pos_as_xyz
  1  'x, y, z'
loop_
 _atom_site_type_symbol
 _atom_site_label
 _atom_site_symmetry_multiplicity
 _atom_site_fract_x
 _atom_site_fract_y
 _atom_site_fract_z
 _atom_site_occupancy
  Tb  Tb0  1  0.65649000  0.77689000  0.76720000  1
  Tb  Tb1  1  0.15649000  0.72311000  0.73280000  1
  Tb  Tb2  1  0.84351000  0.27689000  0.26720000  1
  Tb  Tb3  1  0.34351000  0.22311000  0.23280000  1
  H  H4  1  0.88960000  0.99370000  0.37400000  1
  H  H5  1  0.77040000  0.98410000  0.41920000  1
  H  H6  1  0.17400000  0.98000000  0.83600000  1
  H  H7  1  0.86210000  0.97950000  0.88600000  1
  H  H8  1  0.14270000  0.96190000  0.19690000  1
  H  H9  1  0.97660000  0.96120000  0.22810000  1
  H  H10  1  0.45460000  0.96070000  0.62350000  1
  H  H11  1  0.61920000  0.95530000  0.25330000  1
  H  H12  1  0.49450000  0.94800000  0.29750000  1
  H  H13  1  0.22400000  0.94300000  0.70200000  1
  H  H14  1  0.02930000  0.94290000  0.90630000  1
  H  H15  1  0.84960000  0.92460000  0.08670000  1
  H  H16  1  0.01950000  0.92280000  0.05710000  1
  H  H17  1  0.89690000  0.91850000  0.59860000  1
  H  H18  1  0.80970000  0.90840000  0.51510000  1
  H  H19  1  0.65480000  0.90180000  0.55040000  1
  H  H20  1  0.83730000  0.89830000  0.29740000  1
  H  H21  1  0.30450000  0.89740000  0.62170000  1
  H  H22  1  0.85560000  0.86490000  0.17180000  1
  H  H23  1  0.98390000  0.84340000  0.56970000  1
  H  H24  1  0.68320000  0.83780000  0.29850000  1
  H  H25  1  0.70500000  0.83100000  0.63200000  1
  H  H26  1  0.02760000  0.82930000  0.18940000  1
  H  H27  1  0.13060000  0.81910000  0.96910000  1
  H  H28  1  0.21690000  0.81290000  0.88530000  1
  H  H29  1  0.37140000  0.80260000  0.92030000  1
  H  H30  1  0.53990000  0.75370000  0.56110000  1
  H  H31  1  0.03990000  0.74630000  0.93890000  1
  H  H32  1  0.87140000  0.69740000  0.57970000  1
  H  H33  1  0.71690000  0.68710000  0.61470000  1
  H  H34  1  0.63060000  0.68090000  0.53090000  1
  H  H35  1  0.52760000  0.67070000  0.31060000  1
  H  H36  1  0.20500000  0.66900000  0.86800000  1
  H  H37  1  0.18320000  0.66220000  0.20150000  1
  H  H38  1  0.48390000  0.65660000  0.93030000  1
  H  H39  1  0.35560000  0.63510000  0.32820000  1
  H  H40  1  0.80450000  0.60260000  0.87830000  1
  H  H41  1  0.33730000  0.60170000  0.20260000  1
  H  H42  1  0.15480000  0.59820000  0.94960000  1
  H  H43  1  0.30970000  0.59160000  0.98490000  1
  H  H44  1  0.39690000  0.58150000  0.90140000  1
  H  H45  1  0.51950000  0.57720000  0.44290000  1
  H  H46  1  0.34960000  0.57540000  0.41330000  1
  H  H47  1  0.52930000  0.55710000  0.59370000  1
  H  H48  1  0.72400000  0.55700000  0.79800000  1
  H  H49  1  0.99450000  0.55200000  0.20250000  1
  H  H50  1  0.11920000  0.54470000  0.24670000  1
  H  H51  1  0.95460000  0.53930000  0.87650000  1
  H  H52  1  0.47660000  0.53880000  0.27190000  1
  H  H53  1  0.64270000  0.53810000  0.30310000  1
  H  H54  1  0.36210000  0.52050000  0.61400000  1
  H  H55  1  0.67400000  0.52000000  0.66400000  1
  H  H56  1  0.27040000  0.51590000  0.08080000  1
  H  H57  1  0.38960000  0.50630000  0.12600000  1
  H  H58  1  0.61040000  0.49370000  0.87400000  1
  H  H59  1  0.72960000  0.48410000  0.91920000  1
  H  H60  1  0.32600000  0.48000000  0.33600000  1
  H  H61  1  0.63790000  0.47950000  0.38600000  1
  H  H62  1  0.35730000  0.46190000  0.69690000  1
  H  H63  1  0.52340000  0.46120000  0.72810000  1
  H  H64  1  0.04540000  0.46070000  0.12350000  1
  H  H65  1  0.88080000  0.45530000  0.75330000  1
  H  H66  1  0.00550000  0.44800000  0.79750000  1
  H  H67  1  0.27600000  0.44300000  0.20200000  1
  H  H68  1  0.47070000  0.44290000  0.40630000  1
  H  H69  1  0.65040000  0.42460000  0.58670000  1
  H  H70  1  0.48050000  0.42280000  0.55710000  1
  H  H71  1  0.60310000  0.41850000  0.09860000  1
  H  H72  1  0.69030000  0.40840000  0.01510000  1
  H  H73  1  0.84520000  0.40180000  0.05040000  1
  H  H74  1  0.66270000  0.39830000  0.79740000  1
  H  H75  1  0.19550000  0.39740000  0.12170000  1
  H  H76  1  0.64440000  0.36490000  0.67180000  1
  H  H77  1  0.51610000  0.34340000  0.06970000  1
  H  H78  1  0.81680000  0.33780000  0.79850000  1
  H  H79  1  0.79500000  0.33100000  0.13200000  1
  H  H80  1  0.47240000  0.32930000  0.68940000  1
  H  H81  1  0.36940000  0.31910000  0.46910000  1
  H  H82  1  0.28310000  0.31290000  0.38530000  1
  H  H83  1  0.12860000  0.30260000  0.42030000  1
  H  H84  1  0.96010000  0.25370000  0.06110000  1
  H  H85  1  0.46010000  0.24630000  0.43890000  1
  H  H86  1  0.62860000  0.19740000  0.07970000  1
  H  H87  1  0.78310000  0.18710000  0.11470000  1
  H  H88  1  0.86940000  0.18090000  0.03090000  1
  H  H89  1  0.97240000  0.17070000  0.81060000  1
  H  H90  1  0.29500000  0.16900000  0.36800000  1
  H  H91  1  0.31680000  0.16220000  0.70150000  1
  H  H92  1  0.01610000  0.15660000  0.43030000  1
  H  H93  1  0.14440000  0.13510000  0.82820000  1
  H  H94  1  0.69550000  0.10260000  0.37830000  1
  H  H95  1  0.16270000  0.10170000  0.70260000  1
  H  H96  1  0.34520000  0.09820000  0.44960000  1
  H  H97  1  0.19030000  0.09160000  0.48490000  1
  H  H98  1  0.10310000  0.08150000  0.40140000  1
  H  H99  1  0.98050000  0.07720000  0.94290000  1
  H  H100  1  0.15040000  0.07540000  0.91330000  1
  H  H101  1  0.97070000  0.05710000  0.09370000  1
  H  H102  1  0.77600000  0.05700000  0.29800000  1
  H  H103  1  0.50550000  0.05200000  0.70250000  1
  H  H104  1  0.38080000  0.04470000  0.74670000  1
  H  H105  1  0.54540000  0.03930000  0.37650000  1
  H  H106  1  0.02340000  0.03880000  0.77190000  1
  H  H107  1  0.85730000  0.03810000  0.80310000  1
  H  H108  1  0.13790000  0.02050000  0.11400000  1
  H  H109  1  0.82600000  0.02000000  0.16400000  1
  H  H110  1  0.22960000  0.01590000  0.58080000  1
  H  H111  1  0.11040000  0.00630000  0.62600000  1
  C  C112  1  0.98350000  0.98560000  0.88670000  1
  C  C113  1  0.77470000  0.98250000  0.38360000  1
  C  C114  1  0.05160000  0.97430000  0.83490000  1
  C  C115  1  0.61060000  0.95840000  0.28880000  1
  C  C116  1  0.02130000  0.95630000  0.19500000  1
  C  C117  1  0.33850000  0.95440000  0.69080000  1
  C  C118  1  0.34080000  0.95160000  0.63480000  1
  C  C119  1  0.97090000  0.92950000  0.08970000  1
  C  C120  1  0.72360000  0.89230000  0.30960000  1
  C  C121  1  0.00710000  0.89080000  0.80990000  1
  C  C122  1  0.45470000  0.88940000  0.70910000  1
  C  C123  1  0.75710000  0.87430000  0.53880000  1
  C  C124  1  0.97660000  0.87230000  0.17110000  1
  C  C125  1  0.87690000  0.86450000  0.58210000  1
  C  C126  1  0.69340000  0.83670000  0.39170000  1
  C  C127  1  0.80900000  0.80710000  0.61860000  1
  C  C128  1  0.92910000  0.79410000  0.66020000  1
  C  C129  1  0.10320000  0.79350000  0.10010000  1
  C  C130  1  0.68580000  0.78510000  0.46610000  1
  C  C131  1  0.26810000  0.77680000  0.90820000  1
  C  C132  1  0.14800000  0.76600000  0.95130000  1
  C  C133  1  0.64800000  0.73400000  0.54870000  1
  C  C134  1  0.76810000  0.72320000  0.59180000  1
  C  C135  1  0.18580000  0.71490000  0.03390000  1
  C  C136  1  0.60320000  0.70650000  0.39990000  1
  C  C137  1  0.42910000  0.70590000  0.83980000  1
  C  C138  1  0.30900000  0.69290000  0.88140000  1
  C  C139  1  0.19340000  0.66330000  0.10830000  1
  C  C140  1  0.37690000  0.63550000  0.91790000  1
  C  C141  1  0.47660000  0.62770000  0.32890000  1
  C  C142  1  0.25710000  0.62570000  0.96120000  1
  C  C143  1  0.95470000  0.61060000  0.79090000  1
  C  C144  1  0.50710000  0.60920000  0.69010000  1
  C  C145  1  0.22360000  0.60770000  0.19040000  1
  C  C146  1  0.47090000  0.57050000  0.41030000  1
  C  C147  1  0.84080000  0.54840000  0.86520000  1
  C  C148  1  0.83850000  0.54560000  0.80920000  1
  C  C149  1  0.52130000  0.54370000  0.30500000  1
  C  C150  1  0.11060000  0.54160000  0.21120000  1
  C  C151  1  0.55160000  0.52570000  0.66510000  1
  C  C152  1  0.27470000  0.51750000  0.11640000  1
  C  C153  1  0.48350000  0.51440000  0.61330000  1
  C  C154  1  0.51650000  0.48560000  0.38670000  1
  C  C155  1  0.72530000  0.48250000  0.88360000  1
  C  C156  1  0.44840000  0.47430000  0.33490000  1
  C  C157  1  0.88940000  0.45840000  0.78880000  1
  C  C158  1  0.47870000  0.45630000  0.69500000  1
  C  C159  1  0.16150000  0.45440000  0.19080000  1
  C  C160  1  0.15920000  0.45160000  0.13480000  1
  C  C161  1  0.52910000  0.42950000  0.58970000  1
  C  C162  1  0.77640000  0.39230000  0.80960000  1
  C  C163  1  0.49290000  0.39080000  0.30990000  1
  C  C164  1  0.04530000  0.38940000  0.20910000  1
  C  C165  1  0.74290000  0.37430000  0.03880000  1
  C  C166  1  0.52340000  0.37230000  0.67110000  1
  C  C167  1  0.62310000  0.36450000  0.08210000  1
  C  C168  1  0.80660000  0.33670000  0.89170000  1
  C  C169  1  0.69100000  0.30710000  0.11860000  1
  C  C170  1  0.57090000  0.29410000  0.16020000  1
  C  C171  1  0.39680000  0.29350000  0.60010000  1
  C  C172  1  0.81420000  0.28510000  0.96610000  1
  C  C173  1  0.23190000  0.27680000  0.40820000  1
  C  C174  1  0.35200000  0.26600000  0.45130000  1
  C  C175  1  0.85200000  0.23400000  0.04870000  1
  C  C176  1  0.73190000  0.22320000  0.09180000  1
  C  C177  1  0.31420000  0.21490000  0.53390000  1
  C  C178  1  0.89680000  0.20650000  0.89990000  1
  C  C179  1  0.07090000  0.20590000  0.33980000  1
  C  C180  1  0.19100000  0.19290000  0.38140000  1
  C  C181  1  0.30660000  0.16330000  0.60830000  1
  C  C182  1  0.12310000  0.13550000  0.41790000  1
  C  C183  1  0.02340000  0.12770000  0.82890000  1
  C  C184  1  0.24290000  0.12570000  0.46120000  1
  C  C185  1  0.54530000  0.11060000  0.29090000  1
  C  C186  1  0.99290000  0.10920000  0.19010000  1
  C  C187  1  0.27640000  0.10770000  0.69040000  1
  C  C188  1  0.02910000  0.07050000  0.91030000  1
  C  C189  1  0.65920000  0.04840000  0.36520000  1
  C  C190  1  0.66150000  0.04560000  0.30920000  1
  C  C191  1  0.97870000  0.04370000  0.80500000  1
  C  C192  1  0.38940000  0.04160000  0.71120000  1
  C  C193  1  0.94840000  0.02570000  0.16510000  1
  C  C194  1  0.22530000  0.01750000  0.61640000  1
  C  C195  1  0.01650000  0.01440000  0.11330000  1
  N  N196  1  0.72500000  0.90000000  0.36340000  1
  N  N197  1  0.03570000  0.86500000  0.12040000  1
  N  N198  1  0.71360000  0.85070000  0.44050000  1
  N  N199  1  0.71610000  0.79300000  0.51540000  1
  N  N200  1  0.12870000  0.78960000  0.05130000  1
  N  N201  1  0.64200000  0.76460000  0.36892000  1
  N  N202  1  0.14200000  0.73540000  0.13108000  1
  N  N203  1  0.62870000  0.71040000  0.44870000  1
  N  N204  1  0.21610000  0.70700000  0.98460000  1
  N  N205  1  0.21360000  0.64930000  0.05950000  1
  N  N206  1  0.53570000  0.63500000  0.37960000  1
  N  N207  1  0.22500000  0.60000000  0.13660000  1
  N  N208  1  0.77500000  0.40000000  0.86340000  1
  N  N209  1  0.46430000  0.36500000  0.62040000  1
  N  N210  1  0.78640000  0.35070000  0.94050000  1
  N  N211  1  0.78390000  0.29300000  0.01540000  1
  N  N212  1  0.37130000  0.28960000  0.55130000  1
  N  N213  1  0.85800000  0.26460000  0.86892000  1
  N  N214  1  0.35800000  0.23540000  0.63108000  1
  N  N215  1  0.87130000  0.21040000  0.94870000  1
  N  N216  1  0.28390000  0.20700000  0.48460000  1
  N  N217  1  0.28640000  0.14930000  0.55950000  1
  N  N218  1  0.96430000  0.13500000  0.87960000  1
  N  N219  1  0.27500000  0.10000000  0.63660000  1
  O  O220  1  0.60550000  0.90590000  0.71948000  1
  O  O221  1  0.85730000  0.86690000  0.81195000  1
  O  O222  1  0.12390000  0.85080000  0.78765000  1
  O  O223  1  0.39810000  0.81680000  0.71513000  1
  O  O224  1  0.08500000  0.78920000  0.65204000  1
  O  O225  1  0.87470000  0.78480000  0.70343000  1
  O  O226  1  0.37470000  0.71520000  0.79657000  1
  O  O227  1  0.58500000  0.71080000  0.84796000  1
  O  O228  1  0.89810000  0.68320000  0.78487000  1
  O  O229  1  0.62390000  0.64920000  0.71235000  1
  O  O230  1  0.35730000  0.63310000  0.68805000  1
  O  O231  1  0.10550000  0.59410000  0.78052000  1
  O  O232  1  0.89450000  0.40590000  0.21948000  1
  O  O233  1  0.64270000  0.36690000  0.31195000  1
  O  O234  1  0.37610000  0.35080000  0.28765000  1
  O  O235  1  0.10190000  0.31680000  0.21513000  1
  O  O236  1  0.41500000  0.28920000  0.15204000  1
  O  O237  1  0.62530000  0.28480000  0.20343000  1
  O  O238  1  0.12530000  0.21520000  0.29657000  1
  O  O239  1  0.91500000  0.21080000  0.34796000  1
  O  O240  1  0.60190000  0.18320000  0.28487000  1
  O  O241  1  0.87610000  0.14920000  0.21235000  1
  O  O242  1  0.14270000  0.13310000  0.18805000  1
  O  O243  1  0.39450000  0.09410000  0.28052000  1
