# generated using pymatgen
data_CuH3C4N2O
_symmetry_space_group_name_H-M   'P 1'
_cell_length_a   9.78700000
_cell_length_b   16.25460000
_cell_length_c   16.25459648
_cell_angle_alpha   116.07693422
_cell_angle_beta   101.57806988
_cell_angle_gamma   101.57800000
_symmetry_Int_Tables_number   1
_chemical_formula_structural   CuH3C4N2O
_chemical_formula_sum   'Cu12 H36 C48 N24 O12'
_cell_volume   2149.19914548
_cell_formula_units_Z   12
loop_
 _symmetry_equiv_pos_site_id
 _symmetry_equiv_pos_as_xyz
  1  'x, y, z'
loop_
 _atom_site_type_symbol
 _atom_site_label
 _atom_site_symmetry_multiplicity
 _atom_site_fract_x
 _atom_site_fract_y
 _atom_site_fract_z
 _atom_site_occupancy
  Cu  Cu0  1  0.36570000  0.98502000  0.30688000  1
  Cu  Cu1  1  0.63800000  0.97094000  0.32876000  1
  Cu  Cu2  1  0.69076000  0.32876000  0.35782000  1
  Cu  Cu3  1  0.33294000  0.64218000  0.97094000  1
  Cu  Cu4  1  0.38068000  0.32186000  0.01498000  1
  Cu  Cu5  1  0.05882000  0.69312000  0.67814000  1
  Cu  Cu6  1  0.94118000  0.30688000  0.32186000  1
  Cu  Cu7  1  0.61932000  0.67814000  0.98502000  1
  Cu  Cu8  1  0.66706000  0.35782000  0.02906000  1
  Cu  Cu9  1  0.30924000  0.67124000  0.64218000  1
  Cu  Cu10  1  0.36200000  0.02906000  0.67124000  1
  Cu  Cu11  1  0.63430000  0.01498000  0.69312000  1
  H  H12  1  0.40170000  0.71780000  0.38730000  1
  H  H13  1  0.17830000  0.96510000  0.12880000  1
  H  H14  1  0.23180000  0.13410000  0.16230000  1
  H  H15  1  0.52130000  0.18740000  0.44650000  1
  H  H16  1  0.06950000  0.83770000  0.97180000  1
  H  H17  1  0.21320000  0.16370000  0.03490000  1
  H  H18  1  0.45830000  0.19050000  0.27840000  1
  H  H19  1  0.48940000  0.77750000  0.29670000  1
  H  H20  1  0.04950000  0.87120000  0.83630000  1
  H  H21  1  0.09770000  0.02820000  0.86590000  1
  H  H22  1  0.17990000  0.72160000  0.91210000  1
  H  H23  1  0.80730000  0.29670000  0.51920000  1
  H  H24  1  0.98560000  0.38730000  0.66950000  1
  H  H25  1  0.07480000  0.55350000  0.74090000  1
  H  H26  1  0.68390000  0.66950000  0.28220000  1
  H  H27  1  0.26780000  0.08790000  0.80950000  1
  H  H28  1  0.66610000  0.74090000  0.18740000  1
  H  H29  1  0.71190000  0.51920000  0.22250000  1
  H  H30  1  0.28810000  0.48080000  0.77750000  1
  H  H31  1  0.33390000  0.25910000  0.81260000  1
  H  H32  1  0.73220000  0.91210000  0.19050000  1
  H  H33  1  0.31610000  0.33050000  0.71780000  1
  H  H34  1  0.92520000  0.44650000  0.25910000  1
  H  H35  1  0.01440000  0.61270000  0.33050000  1
  H  H36  1  0.19270000  0.70330000  0.48080000  1
  H  H37  1  0.82010000  0.27840000  0.08790000  1
  H  H38  1  0.90230000  0.97180000  0.13410000  1
  H  H39  1  0.95050000  0.12880000  0.16370000  1
  H  H40  1  0.51060000  0.22250000  0.70330000  1
  H  H41  1  0.54170000  0.80950000  0.72160000  1
  H  H42  1  0.78680000  0.83630000  0.96510000  1
  H  H43  1  0.93050000  0.16230000  0.02820000  1
  H  H44  1  0.47870000  0.81260000  0.55350000  1
  H  H45  1  0.76820000  0.86590000  0.83770000  1
  H  H46  1  0.82170000  0.03490000  0.87120000  1
  H  H47  1  0.59830000  0.28220000  0.61270000  1
  C  C48  1  0.49160000  0.16090000  0.48440000  1
  C  C49  1  0.46410000  0.78300000  0.41810000  1
  C  C50  1  0.22020000  0.91500000  0.10480000  1
  C  C51  1  0.64850000  0.96710000  0.50580000  1
  C  C52  1  0.51670000  0.81790000  0.36490000  1
  C  C53  1  0.16250000  0.84420000  0.01060000  1
  C  C54  1  0.31830000  0.16640000  0.15580000  1
  C  C55  1  0.30520000  0.18980000  0.08500000  1
  C  C56  1  0.45110000  0.19980000  0.22410000  1
  C  C57  1  0.22700000  0.77590000  0.97570000  1
  C  C58  1  0.38650000  0.83740000  0.13230000  1
  C  C59  1  0.84820000  0.36490000  0.54700000  1
  C  C60  1  0.11540000  0.89520000  0.81020000  1
  C  C61  1  0.15190000  0.98940000  0.83360000  1
  C  C62  1  0.85730000  0.50580000  0.53870000  1
  C  C63  1  0.95400000  0.41810000  0.63510000  1
  C  C64  1  0.00720000  0.51560000  0.67650000  1
  C  C65  1  0.31860000  0.46130000  0.96710000  1
  C  C66  1  0.54910000  0.29490000  0.16260000  1
  C  C67  1  0.74580000  0.13230000  0.29490000  1
  C  C68  1  0.25130000  0.02430000  0.80020000  1
  C  C69  1  0.68110000  0.63510000  0.21700000  1
  C  C70  1  0.30120000  0.45300000  0.81790000  1
  C  C71  1  0.33070000  0.32350000  0.83910000  1
  C  C72  1  0.66930000  0.67650000  0.16090000  1
  C  C73  1  0.69880000  0.54700000  0.18210000  1
  C  C74  1  0.31890000  0.36490000  0.78300000  1
  C  C75  1  0.74870000  0.97570000  0.19980000  1
  C  C76  1  0.25420000  0.86770000  0.70510000  1
  C  C77  1  0.45090000  0.70510000  0.83740000  1
  C  C78  1  0.68140000  0.53870000  0.03290000  1
  C  C79  1  0.99280000  0.48440000  0.32350000  1
  C  C80  1  0.04600000  0.58190000  0.36490000  1
  C  C81  1  0.14270000  0.49420000  0.46130000  1
  C  C82  1  0.84810000  0.01060000  0.16640000  1
  C  C83  1  0.88460000  0.10480000  0.18980000  1
  C  C84  1  0.15180000  0.63510000  0.45300000  1
  C  C85  1  0.61350000  0.16260000  0.86770000  1
  C  C86  1  0.77300000  0.22410000  0.02430000  1
  C  C87  1  0.54890000  0.80020000  0.77590000  1
  C  C88  1  0.69480000  0.81020000  0.91500000  1
  C  C89  1  0.68170000  0.83360000  0.84420000  1
  C  C90  1  0.83750000  0.15580000  0.98940000  1
  C  C91  1  0.48330000  0.18210000  0.63510000  1
  C  C92  1  0.35150000  0.03290000  0.49420000  1
  C  C93  1  0.77980000  0.08500000  0.89520000  1
  C  C94  1  0.53590000  0.21700000  0.58190000  1
  C  C95  1  0.50840000  0.83910000  0.51560000  1
  N  N96  1  0.60120000  0.93090000  0.55940000  1
  N  N97  1  0.32700000  0.90880000  0.16680000  1
  N  N98  1  0.60300000  0.91150000  0.40840000  1
  N  N99  1  0.80540000  0.40840000  0.49690000  1
  N  N100  1  0.34650000  0.77740000  0.03570000  1
  N  N101  1  0.41820000  0.25800000  0.09120000  1
  N  N102  1  0.95820000  0.55940000  0.62850000  1
  N  N103  1  0.56910000  0.25830000  0.22260000  1
  N  N104  1  0.30850000  0.50310000  0.91150000  1
  N  N105  1  0.32970000  0.37150000  0.93090000  1
  N  N106  1  0.16020000  0.83320000  0.74200000  1
  N  N107  1  0.68920000  0.03570000  0.25830000  1
  N  N108  1  0.31080000  0.96430000  0.74170000  1
  N  N109  1  0.83980000  0.16680000  0.25800000  1
  N  N110  1  0.67030000  0.62850000  0.06910000  1
  N  N111  1  0.69150000  0.49690000  0.08850000  1
  N  N112  1  0.43090000  0.74170000  0.77740000  1
  N  N113  1  0.04180000  0.44060000  0.37150000  1
  N  N114  1  0.58180000  0.74200000  0.90880000  1
  N  N115  1  0.65350000  0.22260000  0.96430000  1
  N  N116  1  0.19460000  0.59160000  0.50310000  1
  N  N117  1  0.39700000  0.08850000  0.59160000  1
  N  N118  1  0.67300000  0.09120000  0.83320000  1
  N  N119  1  0.39880000  0.06910000  0.44060000  1
  O  O120  1  0.73110000  0.04890000  0.54490000  1
  O  O121  1  0.31780000  0.50400000  0.04890000  1
  O  O122  1  0.45650000  0.81840000  0.18730000  1
  O  O123  1  0.81380000  0.54490000  0.49600000  1
  O  O124  1  0.73080000  0.18730000  0.36890000  1
  O  O125  1  0.63810000  0.36890000  0.18160000  1
  O  O126  1  0.36190000  0.63110000  0.81840000  1
  O  O127  1  0.26920000  0.81270000  0.63110000  1
  O  O128  1  0.18620000  0.45510000  0.50400000  1
  O  O129  1  0.54350000  0.18160000  0.81270000  1
  O  O130  1  0.68220000  0.49600000  0.95110000  1
  O  O131  1  0.26890000  0.95110000  0.45510000  1
