# generated using pymatgen
data_Fe(CO2)3
_symmetry_space_group_name_H-M   'P 1'
_cell_length_a   13.49813175
_cell_length_b   13.49813175
_cell_length_c   13.49813175
_cell_angle_alpha   109.47122063
_cell_angle_beta   109.47122063
_cell_angle_gamma   109.47122063
_symmetry_Int_Tables_number   1
_chemical_formula_structural   Fe(CO2)3
_chemical_formula_sum   'Fe4 C12 O24'
_cell_volume   1893.21134266
_cell_formula_units_Z   4
loop_
 _symmetry_equiv_pos_site_id
 _symmetry_equiv_pos_as_xyz
  1  'x, y, z'
loop_
 _atom_site_type_symbol
 _atom_site_label
 _atom_site_symmetry_multiplicity
 _atom_site_fract_x
 _atom_site_fract_y
 _atom_site_fract_z
 _atom_site_occupancy
  C  C0  1  0.32086000  0.91043000  0.16043000  1
  C  C1  1  0.75000000  0.66043000  0.33957000  1
  C  C2  1  0.16043000  0.83957000  0.75000000  1
  C  C3  1  0.08957000  0.91043000  0.75000000  1
  C  C4  1  0.33957000  0.25000000  0.16043000  1
  C  C5  1  0.08957000  0.67914000  0.33957000  1
  C  C6  1  0.41043000  0.25000000  0.08957000  1
  C  C7  1  0.16043000  0.82086000  0.41043000  1
  C  C8  1  0.41043000  0.66043000  0.32086000  1
  C  C9  1  0.33957000  0.58957000  0.17914000  1
  C  C10  1  0.75000000  0.58957000  0.41043000  1
  C  C11  1  0.17914000  0.83957000  0.08957000  1
  Fe  Fe12  1  0.25000000  0.00000000  1.00000000  1
  Fe  Fe13  1  0.00000000  0.75000000  0.50000000  1
  Fe  Fe14  1  0.50000000  0.50000000  0.25000000  1
  Fe  Fe15  1  0.25000000  0.75000000  0.25000000  1
  O  O16  1  0.37174000  0.88779000  0.23811000  1
  O  O17  1  0.64968000  0.63363000  0.26189000  1
  O  O18  1  0.37174000  0.98395000  0.13363000  1
  O  O19  1  0.85032000  0.73811000  0.36637000  1
  O  O20  1  0.13363000  0.76189000  0.64968000  1
  O  O21  1  0.11221000  0.98395000  0.85032000  1
  O  O22  1  0.23811000  0.86637000  0.85032000  1
  O  O23  1  0.01605000  0.88779000  0.64968000  1
  O  O24  1  0.26189000  0.14968000  0.13363000  1
  O  O25  1  0.01605000  0.62826000  0.36637000  1
  O  O26  1  0.36637000  0.35032000  0.23811000  1
  O  O27  1  0.11221000  0.62826000  0.26189000  1
  O  O28  1  0.38779000  0.14968000  0.01605000  1
  O  O29  1  0.13363000  0.87174000  0.48395000  1
  O  O30  1  0.48395000  0.35032000  0.11221000  1
  O  O31  1  0.23811000  0.87174000  0.38779000  1
  O  O32  1  0.48395000  0.63363000  0.37174000  1
  O  O33  1  0.26189000  0.61221000  0.12826000  1
  O  O34  1  0.38779000  0.73811000  0.37174000  1
  O  O35  1  0.36637000  0.51605000  0.12826000  1
  O  O36  1  0.64968000  0.51605000  0.38779000  1
  O  O37  1  0.12826000  0.76189000  0.11221000  1
  O  O38  1  0.85032000  0.61221000  0.48395000  1
  O  O39  1  0.12826000  0.86637000  0.01605000  1
