# generated using pymatgen
data_Zn3P2H32C42S2N6O13
_symmetry_space_group_name_H-M   'P 1'
_cell_length_a   13.53960000
_cell_length_b   15.72170000
_cell_length_c   30.43800000
_cell_angle_alpha   90.00000000
_cell_angle_beta   90.00000000
_cell_angle_gamma   110.53500000
_symmetry_Int_Tables_number   1
_chemical_formula_structural   Zn3P2H32C42S2N6O13
_chemical_formula_sum   'Zn12 P8 H128 C168 S8 N24 O52'
_cell_volume   6067.50014331
_cell_formula_units_Z   4
loop_
 _symmetry_equiv_pos_site_id
 _symmetry_equiv_pos_as_xyz
  1  'x, y, z'
loop_
 _atom_site_type_symbol
 _atom_site_label
 _atom_site_symmetry_multiplicity
 _atom_site_fract_x
 _atom_site_fract_y
 _atom_site_fract_z
 _atom_site_occupancy
  Zn  Zn0  1  0.66666667  0.70811000  0.91706000  1
  Zn  Zn1  1  0.66666667  0.20811000  0.58294000  1
  Zn  Zn2  1  0.61372000  0.93044000  0.47676000  1
  Zn  Zn3  1  0.61372000  0.43044000  0.02324000  1
  Zn  Zn4  1  0.52430000  0.14052000  0.94927000  1
  Zn  Zn5  1  0.52430000  0.64052000  0.55073000  1
  Zn  Zn6  1  0.47570000  0.35948000  0.44927000  1
  Zn  Zn7  1  0.47570000  0.85948000  0.05073000  1
  Zn  Zn8  1  0.38628000  0.56956000  0.97676000  1
  Zn  Zn9  1  0.38628000  0.06956000  0.52324000  1
  Zn  Zn10  1  0.33333333  0.79189000  0.41706000  1
  Zn  Zn11  1  0.33333333  0.29189000  0.08294000  1
  P  P12  1  0.55694000  0.50061000  0.93248000  1
  P  P13  1  0.55694000  0.00061000  0.56752000  1
  P  P14  1  0.50608000  0.71738000  0.45180000  1
  P  P15  1  0.50608000  0.21738000  0.04820000  1
  P  P16  1  0.49392000  0.78262000  0.95180000  1
  P  P17  1  0.49392000  0.28262000  0.54820000  1
  P  P18  1  0.44306000  0.99939000  0.43248000  1
  P  P19  1  0.44306000  0.49939000  0.06752000  1
  H  H20  1  0.97940000  0.98170000  0.94500000  1
  H  H21  1  0.97940000  0.48170000  0.55500000  1
  H  H22  1  0.97590000  0.60450000  0.96920000  1
  H  H23  1  0.97590000  0.10450000  0.53080000  1
  H  H24  1  0.95520000  0.07990000  0.39980000  1
  H  H25  1  0.95520000  0.57990000  0.10020000  1
  H  H26  1  0.94580000  0.73100000  0.40480000  1
  H  H27  1  0.94580000  0.23100000  0.09520000  1
  H  H28  1  0.88980000  0.76230000  0.48610000  1
  H  H29  1  0.88980000  0.26230000  0.01390000  1
  H  H30  1  0.87680000  0.68570000  0.89990000  1
  H  H31  1  0.87680000  0.18570000  0.60010000  1
  H  H32  1  0.86610000  0.47800000  0.48080000  1
  H  H33  1  0.86610000  0.97800000  0.01920000  1
  H  H34  1  0.86590000  0.40270000  0.90680000  1
  H  H35  1  0.86590000  0.90270000  0.59320000  1
  H  H36  1  0.80460000  0.89300000  0.93890000  1
  H  H37  1  0.80460000  0.39300000  0.56110000  1
  H  H38  1  0.79880000  0.52280000  0.96490000  1
  H  H39  1  0.79880000  0.02280000  0.53510000  1
  H  H40  1  0.78680000  0.62480000  0.38850000  1
  H  H41  1  0.78680000  0.12480000  0.11150000  1
  H  H42  1  0.77790000  0.99990000  0.40770000  1
  H  H43  1  0.77790000  0.49990000  0.09230000  1
  H  H44  1  0.77030000  0.76910000  0.83220000  1
  H  H45  1  0.77030000  0.26910000  0.66780000  1
  H  H46  1  0.74200000  0.75070000  0.75800000  1
  H  H47  1  0.74200000  0.25070000  0.74200000  1
  H  H48  1  0.72140000  0.52110000  0.86950000  1
  H  H49  1  0.72140000  0.02110000  0.63050000  1
  H  H50  1  0.71380000  0.67730000  0.49320000  1
  H  H51  1  0.71380000  0.17730000  0.00680000  1
  H  H52  1  0.71080000  0.14870000  0.80170000  1
  H  H53  1  0.71080000  0.64870000  0.69830000  1
  H  H54  1  0.69100000  0.39280000  0.48890000  1
  H  H55  1  0.69100000  0.89280000  0.01110000  1
  H  H56  1  0.68980000  0.31430000  0.90320000  1
  H  H57  1  0.68980000  0.81430000  0.59680000  1
  H  H58  1  0.68210000  0.77790000  0.39290000  1
  H  H59  1  0.68210000  0.27790000  0.10710000  1
  H  H60  1  0.68030000  0.13070000  0.87570000  1
  H  H61  1  0.68030000  0.63070000  0.62430000  1
  H  H62  1  0.61360000  0.53520000  0.39940000  1
  H  H63  1  0.61360000  0.03520000  0.10060000  1
  H  H64  1  0.61000000  0.90740000  0.88470000  1
  H  H65  1  0.61000000  0.40740000  0.61530000  1
  H  H66  1  0.59870000  0.35380000  0.36250000  1
  H  H67  1  0.59870000  0.85380000  0.13750000  1
  H  H68  1  0.59180000  0.10680000  0.36890000  1
  H  H69  1  0.59180000  0.60680000  0.13110000  1
  H  H70  1  0.58920000  0.63050000  0.28300000  1
  H  H71  1  0.58920000  0.13050000  0.21700000  1
  H  H72  1  0.58100000  0.16150000  0.29920000  1
  H  H73  1  0.58100000  0.34290000  0.28740000  1
  H  H74  1  0.58100000  0.84290000  0.21260000  1
  H  H75  1  0.58100000  0.66150000  0.20080000  1
  H  H76  1  0.58000000  0.38000000  0.76380000  1
  H  H77  1  0.58000000  0.88000000  0.73620000  1
  H  H78  1  0.57380000  0.94480000  0.81440000  1
  H  H79  1  0.57380000  0.44480000  0.68560000  1
  H  H80  1  0.55910000  0.90210000  0.28420000  1
  H  H81  1  0.55910000  0.40210000  0.21580000  1
  H  H82  1  0.52130000  0.87800000  0.35760000  1
  H  H83  1  0.52130000  0.37800000  0.14240000  1
  H  H84  1  0.47870000  0.62200000  0.85760000  1
  H  H85  1  0.47870000  0.12200000  0.64240000  1
  H  H86  1  0.44090000  0.59790000  0.78420000  1
  H  H87  1  0.44090000  0.09790000  0.71580000  1
  H  H88  1  0.42620000  0.55520000  0.31440000  1
  H  H89  1  0.42620000  0.05520000  0.18560000  1
  H  H90  1  0.42000000  0.12000000  0.26380000  1
  H  H91  1  0.42000000  0.62000000  0.23620000  1
  H  H92  1  0.41900000  0.33850000  0.79920000  1
  H  H93  1  0.41900000  0.15710000  0.78740000  1
  H  H94  1  0.41900000  0.65710000  0.71260000  1
  H  H95  1  0.41900000  0.83850000  0.70080000  1
  H  H96  1  0.41080000  0.86950000  0.78300000  1
  H  H97  1  0.41080000  0.36950000  0.71700000  1
  H  H98  1  0.40820000  0.39320000  0.86890000  1
  H  H99  1  0.40820000  0.89320000  0.63110000  1
  H  H100  1  0.40130000  0.14620000  0.86250000  1
  H  H101  1  0.40130000  0.64620000  0.63750000  1
  H  H102  1  0.39000000  0.59260000  0.38470000  1
  H  H103  1  0.39000000  0.09260000  0.11530000  1
  H  H104  1  0.38640000  0.96480000  0.89940000  1
  H  H105  1  0.38640000  0.46480000  0.60060000  1
  H  H106  1  0.31970000  0.36930000  0.37570000  1
  H  H107  1  0.31970000  0.86930000  0.12430000  1
  H  H108  1  0.31790000  0.72210000  0.89290000  1
  H  H109  1  0.31790000  0.22210000  0.60710000  1
  H  H110  1  0.31020000  0.18570000  0.40320000  1
  H  H111  1  0.31020000  0.68570000  0.09680000  1
  H  H112  1  0.30900000  0.10720000  0.98890000  1
  H  H113  1  0.30900000  0.60720000  0.51110000  1
  H  H114  1  0.28920000  0.35130000  0.30170000  1
  H  H115  1  0.28920000  0.85130000  0.19830000  1
  H  H116  1  0.28620000  0.82270000  0.99320000  1
  H  H117  1  0.28620000  0.32270000  0.50680000  1
  H  H118  1  0.27860000  0.97890000  0.36950000  1
  H  H119  1  0.27860000  0.47890000  0.13050000  1
  H  H120  1  0.25800000  0.74930000  0.25800000  1
  H  H121  1  0.25800000  0.24930000  0.24200000  1
  H  H122  1  0.22970000  0.73090000  0.33220000  1
  H  H123  1  0.22970000  0.23090000  0.16780000  1
  H  H124  1  0.22210000  0.50010000  0.90770000  1
  H  H125  1  0.22210000  0.00010000  0.59230000  1
  H  H126  1  0.21320000  0.87520000  0.88850000  1
  H  H127  1  0.21320000  0.37520000  0.61150000  1
  H  H128  1  0.20120000  0.97720000  0.46490000  1
  H  H129  1  0.20120000  0.47720000  0.03510000  1
  H  H130  1  0.19540000  0.60700000  0.43890000  1
  H  H131  1  0.19540000  0.10700000  0.06110000  1
  H  H132  1  0.13410000  0.09730000  0.40680000  1
  H  H133  1  0.13410000  0.59730000  0.09320000  1
  H  H134  1  0.13390000  0.02200000  0.98080000  1
  H  H135  1  0.13390000  0.52200000  0.51920000  1
  H  H136  1  0.12320000  0.81430000  0.39990000  1
  H  H137  1  0.12320000  0.31430000  0.10010000  1
  H  H138  1  0.11020000  0.73770000  0.98610000  1
  H  H139  1  0.11020000  0.23770000  0.51390000  1
  H  H140  1  0.05420000  0.76900000  0.90480000  1
  H  H141  1  0.05420000  0.26900000  0.59520000  1
  H  H142  1  0.04480000  0.42010000  0.89980000  1
  H  H143  1  0.04480000  0.92010000  0.60020000  1
  H  H144  1  0.02410000  0.89550000  0.46920000  1
  H  H145  1  0.02410000  0.39550000  0.03080000  1
  H  H146  1  0.02060000  0.51830000  0.44500000  1
  H  H147  1  0.02060000  0.01830000  0.05500000  1
  C  C148  1  0.99500000  0.70470000  0.41253000  1
  C  C149  1  0.99500000  0.20470000  0.08747000  1
  C  C150  1  0.98580000  0.10360000  0.46464000  1
  C  C151  1  0.98580000  0.60360000  0.03536000  1
  C  C152  1  0.96210000  0.61560000  0.42715000  1
  C  C153  1  0.96210000  0.11560000  0.07285000  1
  C  C154  1  0.96050000  0.92140000  0.93632000  1
  C  C155  1  0.96050000  0.42140000  0.56368000  1
  C  C156  1  0.93710000  0.58420000  0.99480000  1
  C  C157  1  0.93710000  0.08420000  0.50520000  1
  C  C158  1  0.92490000  0.06990000  0.42767000  1
  C  C159  1  0.92490000  0.56990000  0.07233000  1
  C  C160  1  0.89940000  0.34270000  0.96122000  1
  C  C161  1  0.89940000  0.84270000  0.53878000  1
  C  C162  1  0.89790000  0.74570000  0.90948000  1
  C  C163  1  0.89790000  0.24570000  0.59052000  1
  C  C164  1  0.85550000  0.86770000  0.93241000  1
  C  C165  1  0.85550000  0.36770000  0.56759000  1
  C  C166  1  0.85110000  0.27400000  0.99090000  1
  C  C167  1  0.85110000  0.77400000  0.50910000  1
  C  C168  1  0.84830000  0.56050000  0.43305000  1
  C  C169  1  0.84830000  0.06050000  0.06695000  1
  C  C170  1  0.83690000  0.35730000  0.92746000  1
  C  C171  1  0.83690000  0.85730000  0.57254000  1
  C  C172  1  0.83060000  0.53460000  0.99245000  1
  C  C173  1  0.83060000  0.03460000  0.50755000  1
  C  C174  1  0.81840000  0.02100000  0.43273000  1
  C  C175  1  0.81840000  0.52100000  0.06727000  1
  C  C176  1  0.81630000  0.49050000  0.46350000  1
  C  C177  1  0.81630000  0.99050000  0.03650000  1
  C  C178  1  0.76950000  0.57760000  0.40884000  1
  C  C179  1  0.76950000  0.07760000  0.09116000  1
  C  C180  1  0.74500000  0.22260000  0.98630000  1
  C  C181  1  0.74500000  0.72260000  0.51370000  1
  C  C182  1  0.73090000  0.30300000  0.92536000  1
  C  C183  1  0.73090000  0.80300000  0.57464000  1
  C  C184  1  0.71050000  0.43930000  0.46823000  1
  C  C185  1  0.71050000  0.93930000  0.03177000  1
  C  C186  1  0.70340000  0.73420000  0.82229000  1
  C  C187  1  0.70340000  0.23420000  0.67771000  1
  C  C188  1  0.68720000  0.72330000  0.77757000  1
  C  C189  1  0.68720000  0.22330000  0.72243000  1
  C  C190  1  0.66540000  0.52310000  0.41560000  1
  C  C191  1  0.66540000  0.02310000  0.08440000  1
  C  C192  1  0.66390000  0.45370000  0.81278000  1
  C  C193  1  0.66390000  0.95370000  0.68722000  1
  C  C194  1  0.65980000  0.48480000  0.85564000  1
  C  C195  1  0.65980000  0.98480000  0.64436000  1
  C  C196  1  0.64980000  0.71270000  0.33428000  1
  C  C197  1  0.64980000  0.21270000  0.16572000  1
  C  C198  1  0.64690000  0.14790000  0.81330000  1
  C  C199  1  0.64690000  0.64790000  0.68670000  1
  C  C200  1  0.63010000  0.73350000  0.37719000  1
  C  C201  1  0.63010000  0.23350000  0.12281000  1
  C  C202  1  0.62840000  0.13850000  0.85786000  1
  C  C203  1  0.62840000  0.63850000  0.64214000  1
  C  C204  1  0.58760000  0.67070000  0.76211000  1
  C  C205  1  0.58760000  0.17070000  0.73789000  1
  C  C206  1  0.57590000  0.40040000  0.79218000  1
  C  C207  1  0.57590000  0.90040000  0.70782000  1
  C  C208  1  0.57460000  0.64550000  0.31118000  1
  C  C209  1  0.57460000  0.14550000  0.18882000  1
  C  C210  1  0.56840000  0.15620000  0.78578000  1
  C  C211  1  0.56840000  0.65620000  0.71422000  1
  C  C212  1  0.56420000  0.46150000  0.87720000  1
  C  C213  1  0.56420000  0.96150000  0.62280000  1
  C  C214  1  0.54390000  0.87780000  0.87244000  1
  C  C215  1  0.54390000  0.37780000  0.62756000  1
  C  C216  1  0.53590000  0.35350000  0.35003000  1
  C  C217  1  0.53590000  0.85350000  0.14997000  1
  C  C218  1  0.53290000  0.68800000  0.39660000  1
  C  C219  1  0.53290000  0.18800000  0.10340000  1
  C  C220  1  0.53220000  0.64770000  0.83727000  1
  C  C221  1  0.53220000  0.14770000  0.66273000  1
  C  C222  1  0.52650000  0.09210000  0.35521000  1
  C  C223  1  0.52650000  0.59210000  0.14479000  1
  C  C224  1  0.52590000  0.34620000  0.30474000  1
  C  C225  1  0.52590000  0.84620000  0.19526000  1
  C  C226  1  0.52260000  0.89970000  0.83002000  1
  C  C227  1  0.52260000  0.39970000  0.66998000  1
  C  C228  1  0.52040000  0.12390000  0.31317000  1
  C  C229  1  0.52040000  0.62390000  0.18683000  1
  C  C230  1  0.50870000  0.63280000  0.79315000  1
  C  C231  1  0.50870000  0.13280000  0.70685000  1
  C  C232  1  0.49130000  0.86720000  0.29315000  1
  C  C233  1  0.49130000  0.36720000  0.20685000  1
  C  C234  1  0.47960000  0.37610000  0.81317000  1
  C  C235  1  0.47960000  0.87610000  0.68683000  1
  C  C236  1  0.47740000  0.60030000  0.33002000  1
  C  C237  1  0.47740000  0.10030000  0.16998000  1
  C  C238  1  0.47410000  0.15380000  0.80474000  1
  C  C239  1  0.47410000  0.65380000  0.69526000  1
  C  C240  1  0.47350000  0.40790000  0.85521000  1
  C  C241  1  0.47350000  0.90790000  0.64479000  1
  C  C242  1  0.46780000  0.85230000  0.33727000  1
  C  C243  1  0.46780000  0.35230000  0.16273000  1
  C  C244  1  0.46710000  0.81200000  0.89660000  1
  C  C245  1  0.46710000  0.31200000  0.60340000  1
  C  C246  1  0.46410000  0.14650000  0.85003000  1
  C  C247  1  0.46410000  0.64650000  0.64997000  1
  C  C248  1  0.45610000  0.62220000  0.37244000  1
  C  C249  1  0.45610000  0.12220000  0.12756000  1
  C  C250  1  0.43580000  0.03850000  0.37720000  1
  C  C251  1  0.43580000  0.53850000  0.12280000  1
  C  C252  1  0.43160000  0.34380000  0.28578000  1
  C  C253  1  0.43160000  0.84380000  0.21422000  1
  C  C254  1  0.42540000  0.85450000  0.81118000  1
  C  C255  1  0.42540000  0.35450000  0.68882000  1
  C  C256  1  0.42410000  0.09960000  0.29218000  1
  C  C257  1  0.42410000  0.59960000  0.20782000  1
  C  C258  1  0.41240000  0.82930000  0.26211000  1
  C  C259  1  0.41240000  0.32930000  0.23789000  1
  C  C260  1  0.37160000  0.36150000  0.35786000  1
  C  C261  1  0.37160000  0.86150000  0.14214000  1
  C  C262  1  0.36990000  0.76650000  0.87719000  1
  C  C263  1  0.36990000  0.26650000  0.62281000  1
  C  C264  1  0.35310000  0.35210000  0.31330000  1
  C  C265  1  0.35310000  0.85210000  0.18670000  1
  C  C266  1  0.35020000  0.78730000  0.83428000  1
  C  C267  1  0.35020000  0.28730000  0.66572000  1
  C  C268  1  0.34020000  0.01520000  0.35564000  1
  C  C269  1  0.34020000  0.51520000  0.14436000  1
  C  C270  1  0.33610000  0.04630000  0.31278000  1
  C  C271  1  0.33610000  0.54630000  0.18722000  1
  C  C272  1  0.33460000  0.97690000  0.91560000  1
  C  C273  1  0.33460000  0.47690000  0.58440000  1
  C  C274  1  0.31280000  0.77670000  0.27757000  1
  C  C275  1  0.31280000  0.27670000  0.22243000  1
  C  C276  1  0.29660000  0.76580000  0.32229000  1
  C  C277  1  0.29660000  0.26580000  0.17771000  1
  C  C278  1  0.28950000  0.06070000  0.96823000  1
  C  C279  1  0.28950000  0.56070000  0.53177000  1
  C  C280  1  0.26910000  0.19700000  0.42536000  1
  C  C281  1  0.26910000  0.69700000  0.07464000  1
  C  C282  1  0.25500000  0.27740000  0.48630000  1
  C  C283  1  0.25500000  0.77740000  0.01370000  1
  C  C284  1  0.23050000  0.92240000  0.90884000  1
  C  C285  1  0.23050000  0.42240000  0.59116000  1
  C  C286  1  0.18370000  0.00950000  0.96350000  1
  C  C287  1  0.18370000  0.50950000  0.53650000  1
  C  C288  1  0.18160000  0.47900000  0.93273000  1
  C  C289  1  0.18160000  0.97900000  0.56727000  1
  C  C290  1  0.16940000  0.96540000  0.49245000  1
  C  C291  1  0.16940000  0.46540000  0.00755000  1
  C  C292  1  0.16310000  0.14270000  0.42746000  1
  C  C293  1  0.16310000  0.64270000  0.07254000  1
  C  C294  1  0.15170000  0.93950000  0.93305000  1
  C  C295  1  0.15170000  0.43950000  0.56695000  1
  C  C296  1  0.14890000  0.22600000  0.49090000  1
  C  C297  1  0.14890000  0.72600000  0.00910000  1
  C  C298  1  0.14450000  0.63230000  0.43241000  1
  C  C299  1  0.14450000  0.13230000  0.06759000  1
  C  C300  1  0.10210000  0.75430000  0.40948000  1
  C  C301  1  0.10210000  0.25430000  0.09052000  1
  C  C302  1  0.10060000  0.15730000  0.46122000  1
  C  C303  1  0.10060000  0.65730000  0.03878000  1
  C  C304  1  0.07510000  0.43010000  0.92767000  1
  C  C305  1  0.07510000  0.93010000  0.57233000  1
  C  C306  1  0.06290000  0.91580000  0.49480000  1
  C  C307  1  0.06290000  0.41580000  0.00520000  1
  C  C308  1  0.03950000  0.57860000  0.43632000  1
  C  C309  1  0.03950000  0.07860000  0.06368000  1
  C  C310  1  0.03790000  0.88440000  0.92715000  1
  C  C311  1  0.03790000  0.38440000  0.57285000  1
  C  C312  1  0.01420000  0.39640000  0.96464000  1
  C  C313  1  0.01420000  0.89640000  0.53536000  1
  C  C314  1  0.00500000  0.79530000  0.91253000  1
  C  C315  1  0.00500000  0.29530000  0.58747000  1
  S  S316  1  0.78571000  0.48879000  0.78431000  1
  S  S317  1  0.78571000  0.98879000  0.71569000  1
  S  S318  1  0.77319000  0.77424000  0.30975000  1
  S  S319  1  0.77319000  0.27424000  0.19025000  1
  S  S320  1  0.22681000  0.72576000  0.80975000  1
  S  S321  1  0.22681000  0.22576000  0.69025000  1
  S  S322  1  0.21429000  0.01121000  0.28431000  1
  S  S323  1  0.21429000  0.51121000  0.21569000  1
  N  N324  1  0.82380000  0.78050000  0.91972000  1
  N  N325  1  0.82380000  0.28050000  0.58028000  1
  N  N326  1  0.77100000  0.00270000  0.47180000  1
  N  N327  1  0.77100000  0.50270000  0.02820000  1
  N  N328  1  0.68500000  0.23540000  0.95354000  1
  N  N329  1  0.68500000  0.73540000  0.54646000  1
  N  N330  1  0.63500000  0.45390000  0.44426000  1
  N  N331  1  0.63500000  0.95390000  0.05574000  1
  N  N332  1  0.62790000  0.69710000  0.85208000  1
  N  N333  1  0.62790000  0.19710000  0.64792000  1
  N  N334  1  0.53970000  0.13980000  0.87702000  1
  N  N335  1  0.53970000  0.63980000  0.62298000  1
  N  N336  1  0.46030000  0.36020000  0.37702000  1
  N  N337  1  0.46030000  0.86020000  0.12298000  1
  N  N338  1  0.37210000  0.80290000  0.35208000  1
  N  N339  1  0.37210000  0.30290000  0.14792000  1
  N  N340  1  0.36500000  0.04610000  0.94426000  1
  N  N341  1  0.36500000  0.54610000  0.55574000  1
  N  N342  1  0.31500000  0.26460000  0.45354000  1
  N  N343  1  0.31500000  0.76460000  0.04646000  1
  N  N344  1  0.22900000  0.49730000  0.97180000  1
  N  N345  1  0.22900000  0.99730000  0.52820000  1
  N  N346  1  0.17620000  0.71950000  0.41972000  1
  N  N347  1  0.17620000  0.21950000  0.08028000  1
  O  O348  1  0.84850000  0.57050000  0.80180000  1
  O  O349  1  0.84850000  0.07050000  0.69820000  1
  O  O350  1  0.83510000  0.71980000  0.31440000  1
  O  O351  1  0.83510000  0.21980000  0.18560000  1
  O  O352  1  0.82840000  0.42620000  0.79460000  1
  O  O353  1  0.82840000  0.92620000  0.70540000  1
  O  O354  1  0.81380000  0.85790000  0.33140000  1
  O  O355  1  0.81380000  0.35790000  0.16860000  1
  O  O356  1  0.77100000  0.94900000  0.75610000  1
  O  O357  1  0.77100000  0.44900000  0.74390000  1
  O  O358  1  0.75980000  0.02120000  0.75980000  1
  O  O359  1  0.75980000  0.52120000  0.74020000  1
  O  O360  1  0.75020000  0.78700000  0.26530000  1
  O  O361  1  0.75020000  0.28700000  0.23470000  1
  O  O362  1  0.64880000  0.58918000  0.93978000  1
  O  O363  1  0.64880000  0.08918000  0.56022000  1
  O  O364  1  0.60476000  0.77744000  0.95115000  1
  O  O365  1  0.60476000  0.27744000  0.54885000  1
  O  O366  1  0.59240000  0.80760000  0.46162000  1
  O  O367  1  0.59240000  0.30760000  0.03838000  1
  O  O368  1  0.56890000  0.42747000  0.96269000  1
  O  O369  1  0.56890000  0.92747000  0.53731000  1
  O  O370  1  0.54980000  0.98920000  0.43582000  1
  O  O371  1  0.54980000  0.48920000  0.06418000  1
  O  O372  1  0.50987000  0.64173000  0.48241000  1
  O  O373  1  0.50987000  0.14173000  0.01759000  1
  O  O374  1  0.49013000  0.85827000  0.98241000  1
  O  O375  1  0.49013000  0.35827000  0.51759000  1
  O  O376  1  0.45020000  0.51080000  0.93582000  1
  O  O377  1  0.45020000  0.01080000  0.56418000  1
  O  O378  1  0.43110000  0.07253000  0.46269000  1
  O  O379  1  0.43110000  0.57253000  0.03731000  1
  O  O380  1  0.40760000  0.69240000  0.96162000  1
  O  O381  1  0.40760000  0.19240000  0.53838000  1
  O  O382  1  0.39524000  0.72256000  0.45115000  1
  O  O383  1  0.39524000  0.22256000  0.04885000  1
  O  O384  1  0.35120000  0.91082000  0.43978000  1
  O  O385  1  0.35120000  0.41082000  0.06022000  1
  O  O386  1  0.24980000  0.71300000  0.76530000  1
  O  O387  1  0.24980000  0.21300000  0.73470000  1
  O  O388  1  0.24020000  0.47880000  0.25980000  1
  O  O389  1  0.24020000  0.97880000  0.24020000  1
  O  O390  1  0.22900000  0.55100000  0.25610000  1
  O  O391  1  0.22900000  0.05100000  0.24390000  1
  O  O392  1  0.18620000  0.64210000  0.83140000  1
  O  O393  1  0.18620000  0.14210000  0.66860000  1
  O  O394  1  0.17160000  0.07380000  0.29460000  1
  O  O395  1  0.17160000  0.57380000  0.20540000  1
  O  O396  1  0.16490000  0.78020000  0.81440000  1
  O  O397  1  0.16490000  0.28020000  0.68560000  1
  O  O398  1  0.15150000  0.92950000  0.30180000  1
  O  O399  1  0.15150000  0.42950000  0.19820000  1
