# generated using pymatgen
data_InH16(C7O2)4
_symmetry_space_group_name_H-M   'P 1'
_cell_length_a   12.25100000
_cell_length_b   18.63100000
_cell_length_c   20.97600000
_cell_angle_alpha   90.00000000
_cell_angle_beta   90.00000000
_cell_angle_gamma   90.00000000
_symmetry_Int_Tables_number   1
_chemical_formula_structural   InH16(C7O2)4
_chemical_formula_sum   'In4 H64 C112 O32'
_cell_volume   4787.73803986
_cell_formula_units_Z   4
loop_
 _symmetry_equiv_pos_site_id
 _symmetry_equiv_pos_as_xyz
  1  'x, y, z'
loop_
 _atom_site_type_symbol
 _atom_site_label
 _atom_site_symmetry_multiplicity
 _atom_site_fract_x
 _atom_site_fract_y
 _atom_site_fract_z
 _atom_site_occupancy
  In  In0  1  0.25000000  0.00000000  0.62660000  1
  In  In1  1  0.25000000  0.50000000  0.87340000  1
  In  In2  1  0.75000000  0.00000000  0.37340000  1
  In  In3  1  0.75000000  0.50000000  0.12660000  1
  H  H4  1  0.01970000  0.08710000  0.52650000  1
  H  H5  1  0.01970000  0.41290000  0.97350000  1
  H  H6  1  0.03860000  0.61050000  0.23910000  1
  H  H7  1  0.03860000  0.88950000  0.26090000  1
  H  H8  1  0.09250000  0.16370000  0.60000000  1
  H  H9  1  0.09250000  0.33630000  0.90000000  1
  H  H10  1  0.12260000  0.68840000  0.30980000  1
  H  H11  1  0.12260000  0.81160000  0.19020000  1
  H  H12  1  0.17260000  0.23890000  0.88180000  1
  H  H13  1  0.17260000  0.26110000  0.61820000  1
  H  H14  1  0.18170000  0.72690000  0.41100000  1
  H  H15  1  0.18170000  0.77310000  0.08900000  1
  H  H16  1  0.24090000  0.19290000  0.47980000  1
  H  H17  1  0.24090000  0.30710000  0.02020000  1
  H  H18  1  0.24680000  0.66490000  0.69260000  1
  H  H19  1  0.24680000  0.83510000  0.80740000  1
  H  H20  1  0.25320000  0.16490000  0.80740000  1
  H  H21  1  0.25320000  0.33510000  0.69260000  1
  H  H22  1  0.25910000  0.69290000  0.02020000  1
  H  H23  1  0.25910000  0.80710000  0.47980000  1
  H  H24  1  0.31830000  0.22690000  0.08900000  1
  H  H25  1  0.31830000  0.27310000  0.41100000  1
  H  H26  1  0.32740000  0.73890000  0.61820000  1
  H  H27  1  0.32740000  0.76110000  0.88180000  1
  H  H28  1  0.37740000  0.18840000  0.19020000  1
  H  H29  1  0.37740000  0.31160000  0.30980000  1
  H  H30  1  0.40750000  0.66370000  0.90000000  1
  H  H31  1  0.40750000  0.83630000  0.60000000  1
  H  H32  1  0.46140000  0.11050000  0.26090000  1
  H  H33  1  0.46140000  0.38950000  0.23910000  1
  H  H34  1  0.48030000  0.58710000  0.97350000  1
  H  H35  1  0.48030000  0.91290000  0.52650000  1
  H  H36  1  0.51970000  0.08710000  0.47350000  1
  H  H37  1  0.51970000  0.41290000  0.02650000  1
  H  H38  1  0.53860000  0.61050000  0.76090000  1
  H  H39  1  0.53860000  0.88950000  0.73910000  1
  H  H40  1  0.59250000  0.16370000  0.40000000  1
  H  H41  1  0.59250000  0.33630000  0.10000000  1
  H  H42  1  0.62260000  0.68840000  0.69020000  1
  H  H43  1  0.62260000  0.81160000  0.80980000  1
  H  H44  1  0.67260000  0.23890000  0.11820000  1
  H  H45  1  0.67260000  0.26110000  0.38180000  1
  H  H46  1  0.68170000  0.72690000  0.58900000  1
  H  H47  1  0.68170000  0.77310000  0.91100000  1
  H  H48  1  0.74090000  0.19290000  0.52020000  1
  H  H49  1  0.74090000  0.30710000  0.97980000  1
  H  H50  1  0.74680000  0.66490000  0.30740000  1
  H  H51  1  0.74680000  0.83510000  0.19260000  1
  H  H52  1  0.75320000  0.16490000  0.19260000  1
  H  H53  1  0.75320000  0.33510000  0.30740000  1
  H  H54  1  0.75910000  0.69290000  0.97980000  1
  H  H55  1  0.75910000  0.80710000  0.52020000  1
  H  H56  1  0.81830000  0.22690000  0.91100000  1
  H  H57  1  0.81830000  0.27310000  0.58900000  1
  H  H58  1  0.82740000  0.73890000  0.38180000  1
  H  H59  1  0.82740000  0.76110000  0.11820000  1
  H  H60  1  0.87740000  0.18840000  0.80980000  1
  H  H61  1  0.87740000  0.31160000  0.69020000  1
  H  H62  1  0.90750000  0.66370000  0.10000000  1
  H  H63  1  0.90750000  0.83630000  0.40000000  1
  H  H64  1  0.96140000  0.11050000  0.73910000  1
  H  H65  1  0.96140000  0.38950000  0.76090000  1
  H  H66  1  0.98030000  0.58710000  0.02650000  1
  H  H67  1  0.98030000  0.91290000  0.47350000  1
  C  C68  1  0.00340000  0.13700000  0.76750000  1
  C  C69  1  0.00340000  0.36300000  0.73250000  1
  C  C70  1  0.01610000  0.22330000  0.85240000  1
  C  C71  1  0.01610000  0.27670000  0.64760000  1
  C  C72  1  0.02250000  0.62550000  0.04030000  1
  C  C73  1  0.02250000  0.87450000  0.45970000  1
  C  C74  1  0.02280000  0.17160000  0.58390000  1
  C  C75  1  0.02280000  0.32840000  0.91610000  1
  C  C76  1  0.03430000  0.72650000  0.10200000  1
  C  C77  1  0.03430000  0.77350000  0.39800000  1
  C  C78  1  0.04700000  0.68360000  0.30980000  1
  C  C79  1  0.04700000  0.81640000  0.19020000  1
  C  C80  1  0.11460000  0.12970000  0.76740000  1
  C  C81  1  0.11460000  0.37030000  0.73260000  1
  C  C82  1  0.12890000  0.63230000  0.01510000  1
  C  C83  1  0.12890000  0.86770000  0.48490000  1
  C  C84  1  0.12980000  0.21430000  0.85240000  1
  C  C85  1  0.12980000  0.28570000  0.64760000  1
  C  C86  1  0.14070000  0.73360000  0.07640000  1
  C  C87  1  0.14070000  0.76640000  0.42360000  1
  C  C88  1  0.16520000  0.08070000  0.71920000  1
  C  C89  1  0.16520000  0.41930000  0.78080000  1
  C  C90  1  0.17610000  0.58450000  0.96560000  1
  C  C91  1  0.17610000  0.91550000  0.53440000  1
  C  C92  1  0.17750000  0.16900000  0.80890000  1
  C  C93  1  0.17750000  0.33100000  0.69110000  1
  C  C94  1  0.18790000  0.68650000  0.03440000  1
  C  C95  1  0.18790000  0.81350000  0.46560000  1
  C  C96  1  0.31210000  0.18650000  0.46560000  1
  C  C97  1  0.31210000  0.31350000  0.03440000  1
  C  C98  1  0.32250000  0.66900000  0.69110000  1
  C  C99  1  0.32250000  0.83100000  0.80890000  1
  C  C100  1  0.32390000  0.08450000  0.53440000  1
  C  C101  1  0.32390000  0.41550000  0.96560000  1
  C  C102  1  0.33480000  0.58070000  0.78080000  1
  C  C103  1  0.33480000  0.91930000  0.71920000  1
  C  C104  1  0.35930000  0.23360000  0.42360000  1
  C  C105  1  0.35930000  0.26640000  0.07640000  1
  C  C106  1  0.37020000  0.71430000  0.64760000  1
  C  C107  1  0.37020000  0.78570000  0.85240000  1
  C  C108  1  0.37110000  0.13230000  0.48490000  1
  C  C109  1  0.37110000  0.36770000  0.01510000  1
  C  C110  1  0.38540000  0.62970000  0.73260000  1
  C  C111  1  0.38540000  0.87030000  0.76740000  1
  C  C112  1  0.45300000  0.18360000  0.19020000  1
  C  C113  1  0.45300000  0.31640000  0.30980000  1
  C  C114  1  0.46570000  0.22650000  0.39800000  1
  C  C115  1  0.46570000  0.27350000  0.10200000  1
  C  C116  1  0.47720000  0.67160000  0.91610000  1
  C  C117  1  0.47720000  0.82840000  0.58390000  1
  C  C118  1  0.47750000  0.12550000  0.45970000  1
  C  C119  1  0.47750000  0.37450000  0.04030000  1
  C  C120  1  0.48390000  0.72330000  0.64760000  1
  C  C121  1  0.48390000  0.77670000  0.85240000  1
  C  C122  1  0.49660000  0.63700000  0.73250000  1
  C  C123  1  0.49660000  0.86300000  0.76750000  1
  C  C124  1  0.50340000  0.13700000  0.23250000  1
  C  C125  1  0.50340000  0.36300000  0.26750000  1
  C  C126  1  0.51610000  0.22330000  0.14760000  1
  C  C127  1  0.51610000  0.27670000  0.35240000  1
  C  C128  1  0.52250000  0.62550000  0.95970000  1
  C  C129  1  0.52250000  0.87450000  0.54030000  1
  C  C130  1  0.52280000  0.17160000  0.41610000  1
  C  C131  1  0.52280000  0.32840000  0.08390000  1
  C  C132  1  0.53430000  0.72650000  0.89800000  1
  C  C133  1  0.53430000  0.77350000  0.60200000  1
  C  C134  1  0.54700000  0.68360000  0.69020000  1
  C  C135  1  0.54700000  0.81640000  0.80980000  1
  C  C136  1  0.61460000  0.12970000  0.23260000  1
  C  C137  1  0.61460000  0.37030000  0.26740000  1
  C  C138  1  0.62890000  0.63230000  0.98490000  1
  C  C139  1  0.62890000  0.86770000  0.51510000  1
  C  C140  1  0.62980000  0.21430000  0.14760000  1
  C  C141  1  0.62980000  0.28570000  0.35240000  1
  C  C142  1  0.64070000  0.73360000  0.92360000  1
  C  C143  1  0.64070000  0.76640000  0.57640000  1
  C  C144  1  0.66520000  0.08070000  0.28080000  1
  C  C145  1  0.66520000  0.41930000  0.21920000  1
  C  C146  1  0.67610000  0.58450000  0.03440000  1
  C  C147  1  0.67610000  0.91550000  0.46560000  1
  C  C148  1  0.67750000  0.16900000  0.19110000  1
  C  C149  1  0.67750000  0.33100000  0.30890000  1
  C  C150  1  0.68790000  0.68650000  0.96560000  1
  C  C151  1  0.68790000  0.81350000  0.53440000  1
  C  C152  1  0.81210000  0.18650000  0.53440000  1
  C  C153  1  0.81210000  0.31350000  0.96560000  1
  C  C154  1  0.82250000  0.66900000  0.30890000  1
  C  C155  1  0.82250000  0.83100000  0.19110000  1
  C  C156  1  0.82390000  0.08450000  0.46560000  1
  C  C157  1  0.82390000  0.41550000  0.03440000  1
  C  C158  1  0.83480000  0.58070000  0.21920000  1
  C  C159  1  0.83480000  0.91930000  0.28080000  1
  C  C160  1  0.85930000  0.23360000  0.57640000  1
  C  C161  1  0.85930000  0.26640000  0.92360000  1
  C  C162  1  0.87020000  0.71430000  0.35240000  1
  C  C163  1  0.87020000  0.78570000  0.14760000  1
  C  C164  1  0.87110000  0.13230000  0.51510000  1
  C  C165  1  0.87110000  0.36770000  0.98490000  1
  C  C166  1  0.88540000  0.62970000  0.26740000  1
  C  C167  1  0.88540000  0.87030000  0.23260000  1
  C  C168  1  0.95300000  0.18360000  0.80980000  1
  C  C169  1  0.95300000  0.31640000  0.69020000  1
  C  C170  1  0.96570000  0.22650000  0.60200000  1
  C  C171  1  0.96570000  0.27350000  0.89800000  1
  C  C172  1  0.97720000  0.67160000  0.08390000  1
  C  C173  1  0.97720000  0.82840000  0.41610000  1
  C  C174  1  0.97750000  0.12550000  0.54030000  1
  C  C175  1  0.97750000  0.37450000  0.95970000  1
  C  C176  1  0.98390000  0.72330000  0.35240000  1
  C  C177  1  0.98390000  0.77670000  0.14760000  1
  C  C178  1  0.99660000  0.63700000  0.26750000  1
  C  C179  1  0.99660000  0.86300000  0.23250000  1
  O  O180  1  0.10600000  0.04220000  0.68560000  1
  O  O181  1  0.10600000  0.45780000  0.81440000  1
  O  O182  1  0.11280000  0.54705000  0.93260000  1
  O  O183  1  0.11280000  0.95295000  0.56740000  1
  O  O184  1  0.22250000  0.08140000  0.54410000  1
  O  O185  1  0.22250000  0.41860000  0.95590000  1
  O  O186  1  0.23350000  0.58000000  0.78880000  1
  O  O187  1  0.23350000  0.92000000  0.71120000  1
  O  O188  1  0.26650000  0.08000000  0.71120000  1
  O  O189  1  0.26650000  0.42000000  0.78880000  1
  O  O190  1  0.27750000  0.58140000  0.95590000  1
  O  O191  1  0.27750000  0.91860000  0.54410000  1
  O  O192  1  0.38720000  0.04705000  0.56740000  1
  O  O193  1  0.38720000  0.45295000  0.93260000  1
  O  O194  1  0.39400000  0.54220000  0.81440000  1
  O  O195  1  0.39400000  0.95780000  0.68560000  1
  O  O196  1  0.60600000  0.04220000  0.31440000  1
  O  O197  1  0.60600000  0.45780000  0.18560000  1
  O  O198  1  0.61280000  0.54705000  0.06740000  1
  O  O199  1  0.61280000  0.95295000  0.43260000  1
  O  O200  1  0.72250000  0.08140000  0.45590000  1
  O  O201  1  0.72250000  0.41860000  0.04410000  1
  O  O202  1  0.73350000  0.58000000  0.21120000  1
  O  O203  1  0.73350000  0.92000000  0.28880000  1
  O  O204  1  0.76650000  0.08000000  0.28880000  1
  O  O205  1  0.76650000  0.42000000  0.21120000  1
  O  O206  1  0.77750000  0.58140000  0.04410000  1
  O  O207  1  0.77750000  0.91860000  0.45590000  1
  O  O208  1  0.88720000  0.04705000  0.43260000  1
  O  O209  1  0.88720000  0.45295000  0.06740000  1
  O  O210  1  0.89400000  0.54220000  0.18560000  1
  O  O211  1  0.89400000  0.95780000  0.31440000  1
