# generated using pymatgen
data_Co2H40C53(N2O7)2
_symmetry_space_group_name_H-M   'P 1'
_cell_length_a   10.77000000
_cell_length_b   23.78000000
_cell_length_c   24.11883755
_cell_angle_alpha   94.74677972
_cell_angle_beta   102.90113743
_cell_angle_gamma   90.00000000
_symmetry_Int_Tables_number   1
_chemical_formula_structural   Co2H40C53(N2O7)2
_chemical_formula_sum   'Co8 H160 C212 N16 O56'
_cell_volume   5999.42311805
_cell_formula_units_Z   4
loop_
 _symmetry_equiv_pos_site_id
 _symmetry_equiv_pos_as_xyz
  1  'x, y, z'
loop_
 _atom_site_type_symbol
 _atom_site_label
 _atom_site_symmetry_multiplicity
 _atom_site_fract_x
 _atom_site_fract_y
 _atom_site_fract_z
 _atom_site_occupancy
  C  C0  1  0.49635000  0.84730000  0.05710000  1
  C  C1  1  0.56075000  0.34730000  0.05710000  1
  C  C2  1  0.27390000  0.45810000  0.05900000  1
  C  C3  1  0.78510000  0.95810000  0.05900000  1
  C  C4  1  0.13790000  0.62600000  0.06720000  1
  C  C5  1  0.92930000  0.12600000  0.06720000  1
  C  C6  1  0.28192000  0.99130000  0.06904000  1
  C  C7  1  0.78712000  0.49130000  0.06904000  1
  C  C8  1  0.25513000  0.41830000  0.09406000  1
  C  C9  1  0.83893000  0.91830000  0.09406000  1
  C  C10  1  0.07700000  0.66430000  0.09800000  1
  C  C11  1  0.02100000  0.16430000  0.09800000  1
  C  C12  1  0.32644000  0.67130000  0.10188000  1
  C  C13  1  0.77544000  0.17130000  0.10188000  1
  C  C14  1  0.52303000  0.82570000  0.11686000  1
  C  C15  1  0.59383000  0.32570000  0.11686000  1
  C  C16  1  0.24581000  0.02390000  0.11802000  1
  C  C17  1  0.87221000  0.52390000  0.11802000  1
  C  C18  1  0.53267000  0.27790000  0.12794000  1
  C  C19  1  0.59527000  0.77790000  0.12794000  1
  C  C20  1  0.41100000  0.51020000  0.12960000  1
  C  C21  1  0.71860000  0.01020000  0.12960000  1
  C  C22  1  0.14629000  0.70690000  0.13278000  1
  C  C23  1  0.98649000  0.20690000  0.13278000  1
  C  C24  1  0.13236000  0.00960000  0.13292000  1
  C  C25  1  0.00056000  0.50960000  0.13292000  1
  C  C26  1  0.27481000  0.71170000  0.13482000  1
  C  C27  1  0.86001000  0.21170000  0.13482000  1
  C  C28  1  0.31832000  0.06860000  0.15044000  1
  C  C29  1  0.83212000  0.56860000  0.15044000  1
  C  C30  1  0.31721000  0.42620000  0.15162000  1
  C  C31  1  0.83441000  0.92620000  0.15162000  1
  C  C32  1  0.47387000  0.85270000  0.15994000  1
  C  C33  1  0.68607000  0.35270000  0.15994000  1
  C  C34  1  0.40230000  0.47270000  0.17020000  1
  C  C35  1  0.76790000  0.97270000  0.17020000  1
  C  C36  1  0.19700000  0.35110000  0.17360000  1
  C  C37  1  0.97660000  0.85110000  0.17360000  1
  C  C38  1  0.09009000  0.04070000  0.17618000  1
  C  C39  1  0.08609000  0.54070000  0.17618000  1
  C  C40  1  0.56800000  0.25770000  0.18200000  1
  C  C41  1  0.61400000  0.75770000  0.18200000  1
  C  C42  1  0.27589000  0.10090000  0.19298000  1
  C  C43  1  0.91709000  0.60090000  0.19298000  1
  C  C44  1  0.15299000  0.78730000  0.20118000  1
  C  C45  1  0.04819000  0.28730000  0.20118000  1
  C  C46  1  0.16148000  0.08670000  0.20496000  1
  C  C47  1  0.04348000  0.58670000  0.20496000  1
  C  C48  1  0.49478000  0.83450000  0.21376000  1
  C  C49  1  0.71898000  0.33450000  0.21376000  1
  C  C50  1  0.56422000  0.78520000  0.22424000  1
  C  C51  1  0.66002000  0.28520000  0.22424000  1
  C  C52  1  0.17007000  0.32370000  0.22514000  1
  C  C53  1  0.05507000  0.82370000  0.22514000  1
  C  C54  1  0.27989000  0.28780000  0.25118000  1
  C  C55  1  0.97129000  0.78780000  0.25118000  1
  C  C56  1  0.35180000  0.62770000  0.27280000  1
  C  C57  1  0.92100000  0.12770000  0.27280000  1
  C  C58  1  0.15161000  0.36660000  0.27322000  1
  C  C59  1  0.12161000  0.86660000  0.27322000  1
  C  C60  1  0.24020000  0.60140000  0.27440000  1
  C  C61  1  0.03420000  0.10140000  0.27440000  1
  C  C62  1  0.37047000  0.97070000  0.27534000  1
  C  C63  1  0.90487000  0.47070000  0.27534000  1
  C  C64  1  0.28252000  0.93670000  0.29324000  1
  C  C65  1  0.01072000  0.43670000  0.29324000  1
  C  C66  1  0.46489000  0.61070000  0.30538000  1
  C  C67  1  0.84049000  0.11070000  0.30538000  1
  C  C68  1  0.24050000  0.55800000  0.30720000  1
  C  C69  1  0.06670000  0.05800000  0.30720000  1
  C  C70  1  0.44533000  0.00930000  0.31526000  1
  C  C71  1  0.86993000  0.50930000  0.31526000  1
  C  C72  1  0.44165000  0.21320000  0.32150000  1
  C  C73  1  0.87985000  0.71320000  0.32150000  1
  C  C74  1  0.55502000  0.79250000  0.32364000  1
  C  C75  1  0.76862000  0.29250000  0.32364000  1
  C  C76  1  0.31646000  0.22150000  0.32412000  1
  C  C77  1  0.00766000  0.72150000  0.32412000  1
  C  C78  1  0.35340000  0.53950000  0.33980000  1
  C  C79  1  0.46930000  0.56670000  0.33980000  1
  C  C80  1  0.87050000  0.06670000  0.33980000  1
  C  C81  1  0.98640000  0.03950000  0.33980000  1
  C  C82  1  0.45040000  0.77690000  0.34420000  1
  C  C83  1  0.89380000  0.27690000  0.34420000  1
  C  C84  1  0.27913000  0.94320000  0.35006000  1
  C  C85  1  0.07093000  0.44320000  0.35006000  1
  C  C86  1  0.63240000  0.83620000  0.35220000  1
  C  C87  1  0.71980000  0.33620000  0.35220000  1
  C  C88  1  0.50870000  0.17370000  0.35300000  1
  C  C89  1  0.84430000  0.67370000  0.35300000  1
  C  C90  1  0.26660000  0.19120000  0.36080000  1
  C  C91  1  0.09420000  0.69120000  0.36080000  1
  C  C92  1  0.59060000  0.54900000  0.37820000  1
  C  C93  1  0.78760000  0.04900000  0.37820000  1
  C  C94  1  0.36032000  0.98220000  0.38804000  1
  C  C95  1  0.02772000  0.48220000  0.38804000  1
  C  C96  1  0.34130000  0.15200000  0.39080000  1
  C  C97  1  0.04950000  0.65200000  0.39080000  1
  C  C98  1  0.42496000  0.80470000  0.39272000  1
  C  C99  1  0.96776000  0.30470000  0.39272000  1
  C  C100  1  0.60600000  0.86520000  0.40180000  1
  C  C101  1  0.79580000  0.36520000  0.40180000  1
  C  C102  1  0.50350000  0.84910000  0.42220000  1
  C  C103  1  0.91870000  0.34910000  0.42220000  1
  C  C104  1  0.47475000  0.87980000  0.47530000  1
  C  C105  1  0.00055000  0.37980000  0.47530000  1
  C  C106  1  0.52525000  0.12020000  0.52470000  1
  C  C107  1  0.99945000  0.62020000  0.52470000  1
  C  C108  1  0.49650000  0.15090000  0.57780000  1
  C  C109  1  0.08130000  0.65090000  0.57780000  1
  C  C110  1  0.39400000  0.13480000  0.59820000  1
  C  C111  1  0.20420000  0.63480000  0.59820000  1
  C  C112  1  0.57504000  0.19530000  0.60728000  1
  C  C113  1  0.03224000  0.69530000  0.60728000  1
  C  C114  1  0.65870000  0.84800000  0.60920000  1
  C  C115  1  0.95050000  0.34800000  0.60920000  1
  C  C116  1  0.63968000  0.01780000  0.61196000  1
  C  C117  1  0.97228000  0.51780000  0.61196000  1
  C  C118  1  0.40940000  0.45100000  0.62180000  1
  C  C119  1  0.21240000  0.95100000  0.62180000  1
  C  C120  1  0.73340000  0.80880000  0.63920000  1
  C  C121  1  0.90580000  0.30880000  0.63920000  1
  C  C122  1  0.49130000  0.82630000  0.64700000  1
  C  C123  1  0.15570000  0.32630000  0.64700000  1
  C  C124  1  0.36760000  0.16380000  0.64780000  1
  C  C125  1  0.28020000  0.66380000  0.64780000  1
  C  C126  1  0.72087000  0.05680000  0.64994000  1
  C  C127  1  0.92907000  0.55680000  0.64994000  1
  C  C128  1  0.54960000  0.22310000  0.65580000  1
  C  C129  1  0.10620000  0.72310000  0.65580000  1
  C  C130  1  0.53070000  0.43330000  0.66020000  1
  C  C131  1  0.64660000  0.46050000  0.66020000  1
  C  C132  1  0.01360000  0.96050000  0.66020000  1
  C  C133  1  0.12950000  0.93330000  0.66020000  1
  C  C134  1  0.68354000  0.77850000  0.67588000  1
  C  C135  1  0.99234000  0.27850000  0.67588000  1
  C  C136  1  0.44498000  0.20750000  0.67636000  1
  C  C137  1  0.23138000  0.70750000  0.67636000  1
  C  C138  1  0.55835000  0.78680000  0.67850000  1
  C  C139  1  0.12015000  0.28680000  0.67850000  1
  C  C140  1  0.55467000  0.99070000  0.68474000  1
  C  C141  1  0.13007000  0.49070000  0.68474000  1
  C  C142  1  0.75950000  0.44200000  0.69280000  1
  C  C143  1  0.93330000  0.94200000  0.69280000  1
  C  C144  1  0.53511000  0.38930000  0.69462000  1
  C  C145  1  0.15951000  0.88930000  0.69462000  1
  C  C146  1  0.71748000  0.06330000  0.70676000  1
  C  C147  1  0.98928000  0.56330000  0.70676000  1
  C  C148  1  0.62953000  0.02930000  0.72466000  1
  C  C149  1  0.09513000  0.52930000  0.72466000  1
  C  C150  1  0.75980000  0.39860000  0.72560000  1
  C  C151  1  0.96580000  0.89860000  0.72560000  1
  C  C152  1  0.84839000  0.63340000  0.72678000  1
  C  C153  1  0.87839000  0.13340000  0.72678000  1
  C  C154  1  0.64820000  0.37230000  0.72720000  1
  C  C155  1  0.07900000  0.87230000  0.72720000  1
  C  C156  1  0.72011000  0.71220000  0.74882000  1
  C  C157  1  0.02871000  0.21220000  0.74882000  1
  C  C158  1  0.82993000  0.67630000  0.77486000  1
  C  C159  1  0.94493000  0.17630000  0.77486000  1
  C  C160  1  0.43578000  0.21480000  0.77576000  1
  C  C161  1  0.33998000  0.71480000  0.77576000  1
  C  C162  1  0.50522000  0.16550000  0.78624000  1
  C  C163  1  0.28102000  0.66550000  0.78624000  1
  C  C164  1  0.83852000  0.91330000  0.79504000  1
  C  C165  1  0.95652000  0.41330000  0.79504000  1
  C  C166  1  0.84701000  0.21270000  0.79882000  1
  C  C167  1  0.95181000  0.71270000  0.79882000  1
  C  C168  1  0.72411000  0.89910000  0.80702000  1
  C  C169  1  0.08291000  0.39910000  0.80702000  1
  C  C170  1  0.43200000  0.74230000  0.81800000  1
  C  C171  1  0.38600000  0.24230000  0.81800000  1
  C  C172  1  0.90991000  0.95930000  0.82382000  1
  C  C173  1  0.91391000  0.45930000  0.82382000  1
  C  C174  1  0.80300000  0.64890000  0.82640000  1
  C  C175  1  0.02340000  0.14890000  0.82640000  1
  C  C176  1  0.59770000  0.52730000  0.82980000  1
  C  C177  1  0.23210000  0.02730000  0.82980000  1
  C  C178  1  0.52613000  0.14730000  0.84006000  1
  C  C179  1  0.31393000  0.64730000  0.84006000  1
  C  C180  1  0.68279000  0.57380000  0.84838000  1
  C  C181  1  0.16559000  0.07380000  0.84838000  1
  C  C182  1  0.68168000  0.93140000  0.84956000  1
  C  C183  1  0.16788000  0.43140000  0.84956000  1
  C  C184  1  0.72519000  0.28830000  0.86518000  1
  C  C185  1  0.13999000  0.78830000  0.86518000  1
  C  C186  1  0.86764000  0.99040000  0.86708000  1
  C  C187  1  0.99944000  0.49040000  0.86708000  1
  C  C188  1  0.85371000  0.29310000  0.86722000  1
  C  C189  1  0.01351000  0.79310000  0.86722000  1
  C  C190  1  0.58900000  0.48980000  0.87040000  1
  C  C191  1  0.28140000  0.98980000  0.87040000  1
  C  C192  1  0.46733000  0.72210000  0.87206000  1
  C  C193  1  0.40473000  0.22210000  0.87206000  1
  C  C194  1  0.75419000  0.97610000  0.88198000  1
  C  C195  1  0.12779000  0.47610000  0.88198000  1
  C  C196  1  0.47697000  0.17430000  0.88314000  1
  C  C197  1  0.40617000  0.67430000  0.88314000  1
  C  C198  1  0.67356000  0.32870000  0.89812000  1
  C  C199  1  0.22456000  0.82870000  0.89812000  1
  C  C200  1  0.92300000  0.33570000  0.90200000  1
  C  C201  1  0.97900000  0.83570000  0.90200000  1
  C  C202  1  0.74487000  0.58170000  0.90594000  1
  C  C203  1  0.16107000  0.08170000  0.90594000  1
  C  C204  1  0.71808000  0.00870000  0.93096000  1
  C  C205  1  0.21288000  0.50870000  0.93096000  1
  C  C206  1  0.86210000  0.37400000  0.93280000  1
  C  C207  1  0.07070000  0.87400000  0.93280000  1
  C  C208  1  0.72610000  0.54190000  0.94100000  1
  C  C209  1  0.21490000  0.04190000  0.94100000  1
  C  C210  1  0.50365000  0.15270000  0.94290000  1
  C  C211  1  0.43925000  0.65270000  0.94290000  1
  Co  Co212  1  0.34294000  0.56975000  0.01676000  1
  Co  Co213  1  0.67382000  0.06975000  0.01676000  1
  Co  Co214  1  0.56339000  0.07485000  0.43094000  1
  Co  Co215  1  0.86755000  0.57485000  0.43094000  1
  Co  Co216  1  0.43661000  0.92515000  0.56906000  1
  Co  Co217  1  0.13245000  0.42515000  0.56906000  1
  Co  Co218  1  0.65706000  0.43025000  0.98324000  1
  Co  Co219  1  0.32618000  0.93025000  0.98324000  1
  H  H220  1  0.23160000  0.45250000  0.02080000  1
  H  H221  1  0.78920000  0.95250000  0.02080000  1
  H  H222  1  0.08960000  0.59660000  0.04460000  1
  H  H223  1  0.95500000  0.09660000  0.04460000  1
  H  H224  1  0.20270000  0.38690000  0.08020000  1
  H  H225  1  0.87750000  0.88690000  0.08020000  1
  H  H226  1  0.10550000  0.16100000  0.09520000  1
  H  H227  1  0.98970000  0.66100000  0.09520000  1
  H  H228  1  0.46900000  0.25950000  0.09980000  1
  H  H229  1  0.63080000  0.75950000  0.09980000  1
  H  H230  1  0.41340000  0.67420000  0.10360000  1
  H  H231  1  0.69020000  0.17420000  0.10360000  1
  H  H232  1  0.08420000  0.97860000  0.11340000  1
  H  H233  1  0.02920000  0.47860000  0.11340000  1
  H  H234  1  0.46470000  0.54160000  0.14160000  1
  H  H235  1  0.67690000  0.04160000  0.14160000  1
  H  H236  1  0.39740000  0.07710000  0.14340000  1
  H  H237  1  0.74600000  0.57710000  0.14340000  1
  H  H238  1  0.21900000  0.32230000  0.14660000  1
  H  H239  1  0.92760000  0.82230000  0.14660000  1
  H  H240  1  0.42460000  0.88440000  0.15220000  1
  H  H241  1  0.72760000  0.38440000  0.15220000  1
  H  H242  1  0.12140000  0.36980000  0.15440000  1
  H  H243  1  0.03300000  0.86980000  0.15440000  1
  H  H244  1  0.32480000  0.74060000  0.15720000  1
  H  H245  1  0.83240000  0.24060000  0.15720000  1
  H  H246  1  0.20020000  0.81000000  0.18100000  1
  H  H247  1  0.98080000  0.31000000  0.18100000  1
  H  H248  1  0.17120000  0.53070000  0.18560000  1
  H  H249  1  0.01440000  0.03070000  0.18560000  1
  H  H250  1  0.52870000  0.22520000  0.18940000  1
  H  H251  1  0.66070000  0.72520000  0.18940000  1
  H  H252  1  0.45010000  0.47800000  0.20760000  1
  H  H253  1  0.75750000  0.97800000  0.20760000  1
  H  H254  1  0.32400000  0.13160000  0.21300000  1
  H  H255  1  0.88900000  0.63160000  0.21300000  1
  H  H256  1  0.30220000  0.26150000  0.22220000  1
  H  H257  1  0.92000000  0.76150000  0.22220000  1
  H  H258  1  0.21280000  0.77140000  0.23200000  1
  H  H259  1  0.01920000  0.27140000  0.23200000  1
  H  H260  1  0.37830000  0.96750000  0.23760000  1
  H  H261  1  0.85930000  0.46750000  0.23760000  1
  H  H262  1  0.46360000  0.85430000  0.24240000  1
  H  H263  1  0.77880000  0.35430000  0.24240000  1
  H  H264  1  0.35130000  0.65710000  0.24960000  1
  H  H265  1  0.89830000  0.15710000  0.24960000  1
  H  H266  1  0.35400000  0.31130000  0.26900000  1
  H  H267  1  0.91500000  0.81130000  0.26900000  1
  H  H268  1  0.22660000  0.39100000  0.28580000  1
  H  H269  1  0.05920000  0.89100000  0.28580000  1
  H  H270  1  0.47950000  0.23410000  0.29860000  1
  H  H271  1  0.81910000  0.73410000  0.29860000  1
  H  H272  1  0.50070000  0.03240000  0.30240000  1
  H  H273  1  0.80170000  0.53240000  0.30240000  1
  H  H274  1  0.54020000  0.62920000  0.30420000  1
  H  H275  1  0.76400000  0.12920000  0.30420000  1
  H  H276  1  0.16600000  0.84720000  0.30540000  1
  H  H277  1  0.13940000  0.34720000  0.30540000  1
  H  H278  1  0.16400000  0.54040000  0.30820000  1
  H  H279  1  0.14420000  0.04040000  0.30820000  1
  H  H280  1  0.39700000  0.74740000  0.32500000  1
  H  H281  1  0.92800000  0.24740000  0.32500000  1
  H  H282  1  0.63600000  0.34680000  0.33900000  1
  H  H283  1  0.70300000  0.84680000  0.33900000  1
  H  H284  1  0.59280000  0.16820000  0.35040000  1
  H  H285  1  0.75760000  0.66820000  0.35040000  1
  H  H286  1  0.35250000  0.50910000  0.36160000  1
  H  H287  1  0.00910000  0.00910000  0.36160000  1
  H  H288  1  0.22210000  0.92150000  0.36340000  1
  H  H289  1  0.14130000  0.42150000  0.36340000  1
  H  H290  1  0.18390000  0.19710000  0.36520000  1
  H  H291  1  0.18130000  0.69710000  0.36520000  1
  H  H292  1  0.35470000  0.79380000  0.40600000  1
  H  H293  1  0.05130000  0.29380000  0.40600000  1
  H  H294  1  0.30580000  0.13140000  0.41480000  1
  H  H295  1  0.10900000  0.63140000  0.41480000  1
  H  H296  1  0.65830000  0.89520000  0.42060000  1
  H  H297  1  0.76230000  0.39520000  0.42060000  1
  H  H298  1  0.35680000  0.98520000  0.42640000  1
  H  H299  1  0.06960000  0.48520000  0.42640000  1
  H  H300  1  0.64320000  0.01480000  0.57360000  1
  H  H301  1  0.93040000  0.51480000  0.57360000  1
  H  H302  1  0.34170000  0.10480000  0.57940000  1
  H  H303  1  0.23770000  0.60480000  0.57940000  1
  H  H304  1  0.69420000  0.86860000  0.58520000  1
  H  H305  1  0.89100000  0.36860000  0.58520000  1
  H  H306  1  0.64530000  0.20620000  0.59400000  1
  H  H307  1  0.94870000  0.70620000  0.59400000  1
  H  H308  1  0.81610000  0.80290000  0.63480000  1
  H  H309  1  0.81870000  0.30290000  0.63480000  1
  H  H310  1  0.77790000  0.07850000  0.63660000  1
  H  H311  1  0.85870000  0.57850000  0.63660000  1
  H  H312  1  0.64750000  0.49090000  0.63840000  1
  H  H313  1  0.99090000  0.99090000  0.63840000  1
  H  H314  1  0.40720000  0.83180000  0.64960000  1
  H  H315  1  0.24240000  0.33180000  0.64960000  1
  H  H316  1  0.36400000  0.65320000  0.66100000  1
  H  H317  1  0.29700000  0.15320000  0.66100000  1
  H  H318  1  0.60300000  0.25260000  0.67500000  1
  H  H319  1  0.07200000  0.75260000  0.67500000  1
  H  H320  1  0.83600000  0.45960000  0.69180000  1
  H  H321  1  0.85580000  0.95960000  0.69180000  1
  H  H322  1  0.83400000  0.15280000  0.69460000  1
  H  H323  1  0.86060000  0.65280000  0.69460000  1
  H  H324  1  0.45980000  0.37080000  0.69580000  1
  H  H325  1  0.23600000  0.87080000  0.69580000  1
  H  H326  1  0.49930000  0.96760000  0.69760000  1
  H  H327  1  0.19830000  0.46760000  0.69760000  1
  H  H328  1  0.52050000  0.76590000  0.70140000  1
  H  H329  1  0.18090000  0.26590000  0.70140000  1
  H  H330  1  0.77340000  0.60900000  0.71420000  1
  H  H331  1  0.94080000  0.10900000  0.71420000  1
  H  H332  1  0.64600000  0.68870000  0.73100000  1
  H  H333  1  0.08500000  0.18870000  0.73100000  1
  H  H334  1  0.64870000  0.34290000  0.75040000  1
  H  H335  1  0.10170000  0.84290000  0.75040000  1
  H  H336  1  0.53640000  0.14570000  0.75760000  1
  H  H337  1  0.22120000  0.64570000  0.75760000  1
  H  H338  1  0.62170000  0.03250000  0.76240000  1
  H  H339  1  0.14070000  0.53250000  0.76240000  1
  H  H340  1  0.78720000  0.22860000  0.76800000  1
  H  H341  1  0.98080000  0.72860000  0.76800000  1
  H  H342  1  0.69780000  0.73850000  0.77780000  1
  H  H343  1  0.08000000  0.23850000  0.77780000  1
  H  H344  1  0.67600000  0.86840000  0.78700000  1
  H  H345  1  0.11100000  0.36840000  0.78700000  1
  H  H346  1  0.54990000  0.52200000  0.79240000  1
  H  H347  1  0.24250000  0.02200000  0.79240000  1
  H  H348  1  0.47130000  0.77480000  0.81060000  1
  H  H349  1  0.33930000  0.27480000  0.81060000  1
  H  H350  1  0.82880000  0.46930000  0.81440000  1
  H  H351  1  0.98560000  0.96930000  0.81440000  1
  H  H352  1  0.79980000  0.19000000  0.81900000  1
  H  H353  1  0.01920000  0.69000000  0.81900000  1
  H  H354  1  0.67520000  0.25940000  0.84280000  1
  H  H355  1  0.16760000  0.75940000  0.84280000  1
  H  H356  1  0.87860000  0.63020000  0.84560000  1
  H  H357  1  0.96700000  0.13020000  0.84560000  1
  H  H358  1  0.57540000  0.11560000  0.84780000  1
  H  H359  1  0.27240000  0.61560000  0.84780000  1
  H  H360  1  0.78100000  0.67770000  0.85340000  1
  H  H361  1  0.07240000  0.17770000  0.85340000  1
  H  H362  1  0.60260000  0.92290000  0.85660000  1
  H  H363  1  0.25400000  0.42290000  0.85660000  1
  H  H364  1  0.53530000  0.45840000  0.85840000  1
  H  H365  1  0.32310000  0.95840000  0.85840000  1
  H  H366  1  0.91580000  0.02140000  0.88660000  1
  H  H367  1  0.97080000  0.52140000  0.88660000  1
  H  H368  1  0.58660000  0.32580000  0.89640000  1
  H  H369  1  0.30980000  0.82580000  0.89640000  1
  H  H370  1  0.53100000  0.74050000  0.90020000  1
  H  H371  1  0.36920000  0.24050000  0.90020000  1
  H  H372  1  0.89450000  0.83900000  0.90480000  1
  H  H373  1  0.01030000  0.33900000  0.90480000  1
  H  H374  1  0.79730000  0.61310000  0.91980000  1
  H  H375  1  0.12250000  0.11310000  0.91980000  1
  H  H376  1  0.91040000  0.40340000  0.95540000  1
  H  H377  1  0.04500000  0.90340000  0.95540000  1
  H  H378  1  0.76840000  0.54750000  0.97920000  1
  H  H379  1  0.21080000  0.04750000  0.97920000  1
  N  N380  1  0.26253000  0.62890000  0.06806000  1
  N  N381  1  0.80553000  0.12890000  0.06806000  1
  N  N382  1  0.34851000  0.50490000  0.07482000  1
  N  N383  1  0.72631000  0.00490000  0.07482000  1
  N  N384  1  0.44382000  0.01570000  0.37084000  1
  N  N385  1  0.92702000  0.51570000  0.37084000  1
  N  N386  1  0.46084000  0.14170000  0.38788000  1
  N  N387  1  0.92704000  0.64170000  0.38788000  1
  N  N388  1  0.53916000  0.85830000  0.61212000  1
  N  N389  1  0.07296000  0.35830000  0.61212000  1
  N  N390  1  0.55618000  0.98430000  0.62916000  1
  N  N391  1  0.07298000  0.48430000  0.62916000  1
  N  N392  1  0.65149000  0.49510000  0.92518000  1
  N  N393  1  0.27369000  0.99510000  0.92518000  1
  N  N394  1  0.73747000  0.37110000  0.93194000  1
  N  N395  1  0.19447000  0.87110000  0.93194000  1
  O  O396  1  0.45601000  0.33600000  0.02422000  1
  O  O397  1  0.56821000  0.83600000  0.02422000  1
  O  O398  1  0.20306000  0.95690000  0.03632000  1
  O  O399  1  0.83326000  0.45690000  0.03632000  1
  O  O400  1  0.39522000  0.87690000  0.04524000  1
  O  O401  1  0.65002000  0.37690000  0.04524000  1
  O  O402  1  0.38863000  0.99980000  0.05706000  1
  O  O403  1  0.66843000  0.49980000  0.05706000  1
  O  O404  1  0.08170000  0.74280000  0.16260000  1
  O  O405  1  0.08090000  0.24280000  0.16260000  1
  O  O406  1  0.30189000  0.39190000  0.19278000  1
  O  O407  1  0.89089000  0.89190000  0.19278000  1
  O  O408  1  0.12539000  0.62270000  0.24518000  1
  O  O409  1  0.11979000  0.12270000  0.24518000  1
  O  O410  1  0.21181000  0.90020000  0.25242000  1
  O  O411  1  0.04061000  0.40020000  0.25242000  1
  O  O412  1  0.58136000  0.76060000  0.27652000  1
  O  O413  1  0.69516000  0.26060000  0.27652000  1
  O  O414  1  0.23736000  0.25760000  0.29352000  1
  O  O415  1  0.05616000  0.75760000  0.29352000  1
  O  O416  1  0.68586000  0.58180000  0.38332000  1
  O  O417  1  0.69746000  0.08180000  0.38332000  1
  O  O418  1  0.59100000  0.50380000  0.40120000  1
  O  O419  1  0.81020000  0.00380000  0.40120000  1
  O  O420  1  0.38028000  0.86450000  0.49336000  1
  O  O421  1  0.11308000  0.36450000  0.49336000  1
  O  O422  1  0.45020000  0.08110000  0.49620000  1
  O  O423  1  0.04600000  0.58110000  0.49620000  1
  O  O424  1  0.54980000  0.91890000  0.50380000  1
  O  O425  1  0.95400000  0.41890000  0.50380000  1
  O  O426  1  0.61972000  0.13550000  0.50664000  1
  O  O427  1  0.88692000  0.63550000  0.50664000  1
  O  O428  1  0.40900000  0.49620000  0.59880000  1
  O  O429  1  0.18980000  0.99620000  0.59880000  1
  O  O430  1  0.31414000  0.41820000  0.61668000  1
  O  O431  1  0.30254000  0.91820000  0.61668000  1
  O  O432  1  0.76264000  0.74240000  0.70648000  1
  O  O433  1  0.94384000  0.24240000  0.70648000  1
  O  O434  1  0.41864000  0.23940000  0.72348000  1
  O  O435  1  0.30484000  0.73940000  0.72348000  1
  O  O436  1  0.78819000  0.09980000  0.74758000  1
  O  O437  1  0.95939000  0.59980000  0.74758000  1
  O  O438  1  0.87461000  0.37730000  0.75482000  1
  O  O439  1  0.88021000  0.87730000  0.75482000  1
  O  O440  1  0.69811000  0.60810000  0.80722000  1
  O  O441  1  0.10911000  0.10810000  0.80722000  1
  O  O442  1  0.91830000  0.25720000  0.83740000  1
  O  O443  1  0.91910000  0.75720000  0.83740000  1
  O  O444  1  0.61137000  0.00020000  0.94294000  1
  O  O445  1  0.33157000  0.50020000  0.94294000  1
  O  O446  1  0.60478000  0.12310000  0.95476000  1
  O  O447  1  0.34998000  0.62310000  0.95476000  1
  O  O448  1  0.79694000  0.04310000  0.96368000  1
  O  O449  1  0.16674000  0.54310000  0.96368000  1
  O  O450  1  0.54399000  0.66400000  0.97578000  1
  O  O451  1  0.43179000  0.16400000  0.97578000  1
