# generated using pymatgen
data_CoH16(C12N5)2
_symmetry_space_group_name_H-M   'P 1'
_cell_length_a   9.71350000
_cell_length_b   16.32839137
_cell_length_c   16.32839137
_cell_angle_alpha   116.16890412
_cell_angle_beta   101.43725494
_cell_angle_gamma   101.43725494
_symmetry_Int_Tables_number   1
_chemical_formula_structural   CoH16(C12N5)2
_chemical_formula_sum   'Co3 H48 C72 N30'
_cell_volume   2154.62439837
_cell_formula_units_Z   3
loop_
 _symmetry_equiv_pos_site_id
 _symmetry_equiv_pos_as_xyz
  1  'x, y, z'
loop_
 _atom_site_type_symbol
 _atom_site_label
 _atom_site_symmetry_multiplicity
 _atom_site_fract_x
 _atom_site_fract_y
 _atom_site_fract_z
 _atom_site_occupancy
  C  C0  1  0.79360000  0.72710000  0.29500000  1
  C  C1  1  0.92041000  0.76632000  0.28311000  1
  C  C2  1  0.29900000  0.50260000  0.57090000  1
  C  C3  1  0.07930000  0.26470000  0.80980000  1
  C  C4  1  0.55610000  0.86770000  0.20960000  1
  C  C5  1  0.98360000  0.44300000  0.65860000  1
  C  C6  1  0.68830000  0.63400000  0.47010000  1
  C  C7  1  0.32500000  0.34140000  0.78440000  1
  C  C8  1  0.49860000  0.70500000  0.43210000  1
  C  C9  1  0.70570000  0.91160000  0.23170000  1
  C  C10  1  0.93350000  0.43210000  0.72710000  1
  C  C11  1  0.49410000  0.89380000  0.28160000  1
  C  C12  1  0.63730000  0.71689000  0.48321000  1
  C  C13  1  0.05430000  0.83610000  0.36600000  1
  C  C14  1  0.32490000  0.60480000  0.60640000  1
  C  C15  1  0.20260000  0.33190000  0.88540000  1
  C  C16  1  0.87070000  0.55350000  0.66810000  1
  C  C17  1  0.45940000  0.78440000  0.44300000  1
  C  C18  1  0.84591000  0.48321000  0.76632000  1
  C  C19  1  0.81460000  0.54510000  0.73530000  1
  C  C20  1  0.78870000  0.97830000  0.32460000  1
  C  C21  1  0.78180000  0.47010000  0.83610000  1
  C  C22  1  0.46410000  0.67540000  0.65370000  1
  C  C23  1  0.21250000  0.71840000  0.61220000  1
  C  C24  1  0.73050000  0.80980000  0.54510000  1
  C  C25  1  0.72810000  0.42910000  0.93170000  1
  C  C26  1  0.81040000  0.34630000  0.02170000  1
  C  C27  1  0.71850000  0.39360000  0.99840000  1
  C  C28  1  0.72010000  0.00160000  0.39520000  1
  C  C29  1  0.79410000  0.32010000  0.08840000  1
  C  C30  1  0.20360000  0.93170000  0.50260000  1
  C  C31  1  0.68280000  0.88540000  0.55350000  1
  C  C32  1  0.47400000  0.76830000  0.67990000  1
  C  C33  1  0.34650000  0.79040000  0.65810000  1
  C  C34  1  0.68840000  0.34190000  0.13230000  1
  C  C35  1  0.60030000  0.38780000  0.10620000  1
  C  C36  1  0.39970000  0.61220000  0.89380000  1
  C  C37  1  0.31160000  0.65810000  0.86770000  1
  C  C38  1  0.65350000  0.20960000  0.34190000  1
  C  C39  1  0.52600000  0.23170000  0.32010000  1
  C  C40  1  0.31720000  0.11460000  0.44650000  1
  C  C41  1  0.79640000  0.06830000  0.49740000  1
  C  C42  1  0.20590000  0.67990000  0.91160000  1
  C  C43  1  0.27990000  0.99840000  0.60480000  1
  C  C44  1  0.28150000  0.60640000  0.00160000  1
  C  C45  1  0.18960000  0.65370000  0.97830000  1
  C  C46  1  0.27190000  0.57090000  0.06830000  1
  C  C47  1  0.26950000  0.19020000  0.45490000  1
  C  C48  1  0.78750000  0.28160000  0.38780000  1
  C  C49  1  0.53590000  0.32460000  0.34630000  1
  C  C50  1  0.21820000  0.52990000  0.16390000  1
  C  C51  1  0.21130000  0.02170000  0.67540000  1
  C  C52  1  0.18540000  0.45490000  0.26470000  1
  C  C53  1  0.15409000  0.51679000  0.23368000  1
  C  C54  1  0.54060000  0.21560000  0.55700000  1
  C  C55  1  0.12930000  0.44650000  0.33190000  1
  C  C56  1  0.79740000  0.66810000  0.11460000  1
  C  C57  1  0.67510000  0.39520000  0.39360000  1
  C  C58  1  0.94570000  0.16390000  0.63400000  1
  C  C59  1  0.36270000  0.28311000  0.51679000  1
  C  C60  1  0.50590000  0.10620000  0.71840000  1
  C  C61  1  0.06650000  0.56790000  0.27290000  1
  C  C62  1  0.29430000  0.08840000  0.76830000  1
  C  C63  1  0.50140000  0.29500000  0.56790000  1
  C  C64  1  0.67500000  0.65860000  0.21560000  1
  C  C65  1  0.31170000  0.36600000  0.52990000  1
  C  C66  1  0.01640000  0.55700000  0.34140000  1
  C  C67  1  0.44390000  0.13230000  0.79040000  1
  C  C68  1  0.92070000  0.73530000  0.19020000  1
  C  C69  1  0.70100000  0.49740000  0.42910000  1
  C  C70  1  0.07959000  0.23368000  0.71689000  1
  C  C71  1  0.20640000  0.27290000  0.70500000  1
  Co  Co72  1  1.00000000  0.50000000  0.50000000  1
  Co  Co73  1  0.50000000  1.00000000  0.50000000  1
  Co  Co74  1  0.50000000  0.50000000  1.00000000  1
  H  H75  1  0.50170000  0.17880000  0.85340000  1
  H  H76  1  0.43100000  0.64330000  0.39000000  1
  H  H77  1  0.04160000  0.40650000  0.63180000  1
  H  H78  1  0.99490000  0.24010000  0.82120000  1
  H  H79  1  0.74940000  0.89570000  0.18340000  1
  H  H80  1  0.78770000  0.74670000  0.35670000  1
  H  H81  1  0.39280000  0.86490000  0.26580000  1
  H  H82  1  0.95900000  0.39000000  0.74670000  1
  H  H83  1  0.40980000  0.36820000  0.77470000  1
  H  H84  1  0.36490000  0.77470000  0.40650000  1
  H  H85  1  0.84950000  0.59690000  0.64930000  1
  H  H86  1  0.20020000  0.35070000  0.94760000  1
  H  H87  1  0.88180000  0.33280000  0.99200000  1
  H  H88  1  0.54900000  0.65920000  0.66720000  1
  H  H89  1  0.12700000  0.73420000  0.59910000  1
  H  H90  1  0.75480000  0.58110000  0.75990000  1
  H  H91  1  0.88980000  0.00800000  0.34080000  1
  H  H92  1  0.85370000  0.28770000  0.10430000  1
  H  H93  1  0.82630000  0.82120000  0.58110000  1
  H  H94  1  0.25260000  0.05240000  0.40310000  1
  H  H95  1  0.47210000  0.59910000  0.86490000  1
  H  H96  1  0.43400000  0.18340000  0.28770000  1
  H  H97  1  0.64830000  0.14660000  0.32540000  1
  H  H98  1  0.32290000  0.67460000  0.82120000  1
  H  H99  1  0.67710000  0.32540000  0.17880000  1
  H  H100  1  0.35170000  0.85340000  0.67460000  1
  H  H101  1  0.56600000  0.81660000  0.71230000  1
  H  H102  1  0.52790000  0.40090000  0.13510000  1
  H  H103  1  0.74740000  0.94760000  0.59690000  1
  H  H104  1  0.17370000  0.17880000  0.41890000  1
  H  H105  1  0.14630000  0.71230000  0.89570000  1
  H  H106  1  0.11020000  0.99200000  0.65920000  1
  H  H107  1  0.24520000  0.41890000  0.24010000  1
  H  H108  1  0.87300000  0.26580000  0.40090000  1
  H  H109  1  0.45100000  0.34080000  0.33280000  1
  H  H110  1  0.11820000  0.66720000  0.00800000  1
  H  H111  1  0.79980000  0.64930000  0.05240000  1
  H  H112  1  0.15050000  0.40310000  0.35070000  1
  H  H113  1  0.63510000  0.22530000  0.59350000  1
  H  H114  1  0.59020000  0.63180000  0.22530000  1
  H  H115  1  0.04100000  0.61000000  0.25330000  1
  H  H116  1  0.60720000  0.13510000  0.73420000  1
  H  H117  1  0.21230000  0.25330000  0.64330000  1
  H  H118  1  0.25060000  0.10430000  0.81660000  1
  H  H119  1  0.00510000  0.75990000  0.17880000  1
  H  H120  1  0.95840000  0.59350000  0.36820000  1
  H  H121  1  0.56900000  0.35670000  0.61000000  1
  H  H122  1  0.49830000  0.82120000  0.14660000  1
  N  N123  1  0.39863000  0.45852000  0.58087000  1
  N  N124  1  0.83878000  0.55910000  0.48224000  1
  N  N125  1  0.95368000  0.50329000  0.62825000  1
  N  N126  1  0.83290000  0.64959000  0.51061000  1
  N  N127  1  0.19862000  0.62640000  0.58486000  1
  N  N128  1  0.18331000  0.86102000  0.35041000  1
  N  N129  1  0.32543000  0.37175000  0.87504000  1
  N  N130  1  0.81776000  0.41913000  0.87765000  1
  N  N131  1  0.57222000  0.95846000  0.37360000  1
  N  N132  1  0.05989000  0.87765000  0.45852000  1
  N  N133  1  0.27968000  0.92314000  0.44090000  1
  N  N134  1  0.67771000  0.51061000  0.86102000  1
  N  N135  1  0.54961000  0.87504000  0.50329000  1
  N  N136  1  0.64346000  0.48224000  0.92314000  1
  N  N137  1  0.61376000  0.41514000  0.04154000  1
  N  N138  1  0.38624000  0.58486000  0.95846000  1
  N  N139  1  0.35654000  0.51776000  0.07686000  1
  N  N140  1  0.45039000  0.12496000  0.49671000  1
  N  N141  1  0.32229000  0.48939000  0.13898000  1
  N  N142  1  0.72032000  0.07686000  0.55910000  1
  N  N143  1  0.94011000  0.12235000  0.54148000  1
  N  N144  1  0.42778000  0.04154000  0.62640000  1
  N  N145  1  0.18224000  0.58087000  0.12235000  1
  N  N146  1  0.67457000  0.62825000  0.12496000  1
  N  N147  1  0.81669000  0.13898000  0.64959000  1
  N  N148  1  0.80138000  0.37360000  0.41514000  1
  N  N149  1  0.16710000  0.35041000  0.48939000  1
  N  N150  1  0.04632000  0.49671000  0.37175000  1
  N  N151  1  0.16122000  0.44090000  0.51776000  1
  N  N152  1  0.60137000  0.54148000  0.41913000  1
