# generated using pymatgen
data_MnHgC4(SN)4
_symmetry_space_group_name_H-M   'P 1'
_cell_length_a   9.24580000
_cell_length_b   14.11100000
_cell_length_c   16.49370000
_cell_angle_alpha   90.00000000
_cell_angle_beta   92.91200000
_cell_angle_gamma   90.00000000
_symmetry_Int_Tables_number   1
_chemical_formula_structural   MnHgC4(SN)4
_chemical_formula_sum   'Mn4 Hg4 C16 S16 N16'
_cell_volume   2149.11288419
_cell_formula_units_Z   4
loop_
 _symmetry_equiv_pos_site_id
 _symmetry_equiv_pos_as_xyz
  1  'x, y, z'
loop_
 _atom_site_type_symbol
 _atom_site_label
 _atom_site_symmetry_multiplicity
 _atom_site_fract_x
 _atom_site_fract_y
 _atom_site_fract_z
 _atom_site_occupancy
  Mn  Mn0  1  0.02063000  0.65175000  0.25395000  1
  Mn  Mn1  1  0.47937000  0.15175000  0.24605000  1
  Mn  Mn2  1  0.52063000  0.84825000  0.75395000  1
  Mn  Mn3  1  0.97937000  0.34825000  0.74605000  1
  Hg  Hg4  1  0.01622000  0.70461000  0.58131000  1
  Hg  Hg5  1  0.48378000  0.20461000  0.91869000  1
  Hg  Hg6  1  0.51622000  0.79539000  0.08131000  1
  Hg  Hg7  1  0.98378000  0.29539000  0.41869000  1
  C  C8  1  0.05350000  0.20910000  0.58900000  1
  C  C9  1  0.13220000  0.49560000  0.39550000  1
  C  C10  1  0.14370000  0.21410000  0.88990000  1
  C  C11  1  0.14760000  0.24280000  0.26000000  1
  C  C12  1  0.35240000  0.74280000  0.24000000  1
  C  C13  1  0.35630000  0.71410000  0.61010000  1
  C  C14  1  0.36780000  0.99560000  0.10450000  1
  C  C15  1  0.44650000  0.70910000  0.91100000  1
  C  C16  1  0.55350000  0.29090000  0.08900000  1
  C  C17  1  0.63220000  0.00440000  0.89550000  1
  C  C18  1  0.64370000  0.28590000  0.38990000  1
  C  C19  1  0.64760000  0.25720000  0.76000000  1
  C  C20  1  0.85240000  0.75720000  0.74000000  1
  C  C21  1  0.85630000  0.78590000  0.11010000  1
  C  C22  1  0.86780000  0.50440000  0.60450000  1
  C  C23  1  0.94650000  0.79090000  0.41100000  1
  S  S24  1  0.02427000  0.72678000  0.73227000  1
  S  S25  1  0.06166000  0.14894000  0.50341000  1
  S  S26  1  0.18161000  0.41171000  0.46090000  1
  S  S27  1  0.23643000  0.15527000  0.96158000  1
  S  S28  1  0.26357000  0.65527000  0.53842000  1
  S  S29  1  0.31839000  0.91171000  0.03910000  1
  S  S30  1  0.43834000  0.64894000  0.99659000  1
  S  S31  1  0.47573000  0.22678000  0.76773000  1
  S  S32  1  0.52427000  0.77322000  0.23227000  1
  S  S33  1  0.56166000  0.35106000  0.00341000  1
  S  S34  1  0.68161000  0.08829000  0.96090000  1
  S  S35  1  0.73643000  0.34473000  0.46158000  1
  S  S36  1  0.76357000  0.84473000  0.03842000  1
  S  S37  1  0.81839000  0.58829000  0.53910000  1
  S  S38  1  0.93834000  0.85106000  0.49659000  1
  S  S39  1  0.97573000  0.27322000  0.26773000  1
  N  N40  1  0.04680000  0.25010000  0.64840000  1
  N  N41  1  0.07700000  0.25490000  0.84100000  1
  N  N42  1  0.10080000  0.55410000  0.35110000  1
  N  N43  1  0.23620000  0.72020000  0.24780000  1
  N  N44  1  0.26380000  0.22020000  0.25220000  1
  N  N45  1  0.39920000  0.05410000  0.14890000  1
  N  N46  1  0.42300000  0.75490000  0.65900000  1
  N  N47  1  0.45320000  0.75010000  0.85160000  1
  N  N48  1  0.54680000  0.24990000  0.14840000  1
  N  N49  1  0.57700000  0.24510000  0.34100000  1
  N  N50  1  0.60080000  0.94590000  0.85110000  1
  N  N51  1  0.73620000  0.77980000  0.74780000  1
  N  N52  1  0.76380000  0.27980000  0.75220000  1
  N  N53  1  0.89920000  0.44590000  0.64890000  1
  N  N54  1  0.92300000  0.74510000  0.15900000  1
  N  N55  1  0.95320000  0.74990000  0.35160000  1
