# generated using pymatgen
data_HoH3(CO2)3
_symmetry_space_group_name_H-M   'P 1'
_cell_length_a   6.57310000
_cell_length_b   6.65891222
_cell_length_c   6.65891222
_cell_angle_alpha   64.73430997
_cell_angle_beta   73.61538235
_cell_angle_gamma   73.61538235
_symmetry_Int_Tables_number   1
_chemical_formula_structural   HoH3(CO2)3
_chemical_formula_sum   'Ho1 H3 C3 O6'
_cell_volume   248.44338942
_cell_formula_units_Z   1
loop_
 _symmetry_equiv_pos_site_id
 _symmetry_equiv_pos_as_xyz
  1  'x, y, z'
loop_
 _atom_site_type_symbol
 _atom_site_label
 _atom_site_symmetry_multiplicity
 _atom_site_fract_x
 _atom_site_fract_y
 _atom_site_fract_z
 _atom_site_occupancy
  C  C0  1  0.50000000  0.83790000  0.16210000  1
  C  C1  1  0.03510000  0.37350000  0.15490000  1
  C  C2  1  0.96490000  0.84510000  0.62650000  1
  H  H3  1  0.50000000  0.96840000  0.03160000  1
  H  H4  1  0.89580000  0.36970000  0.23930000  1
  H  H5  1  0.10420000  0.76070000  0.63030000  1
  Ho  Ho6  1  1.00000000  0.90470000  0.09530000  1
  O  O7  1  0.33530000  0.75180000  0.23320000  1
  O  O8  1  0.88220000  0.91050000  0.78210000  1
  O  O9  1  0.11450000  0.53640000  0.12240000  1
  O  O10  1  0.88550000  0.87760000  0.46360000  1
  O  O11  1  0.11780000  0.21790000  0.08950000  1
  O  O12  1  0.66470000  0.76680000  0.24820000  1
