# generated using pymatgen
data_Mn4H41C70(SO6)5
_symmetry_space_group_name_H-M   'P 1'
_cell_length_a   11.67500000
_cell_length_b   21.07189802
_cell_length_c   24.06910329
_cell_angle_alpha   115.23365944
_cell_angle_beta   102.82106855
_cell_angle_gamma   92.70046212
_symmetry_Int_Tables_number   1
_chemical_formula_structural   Mn4H41C70(SO6)5
_chemical_formula_sum   'Mn8 H82 C140 S10 O60'
_cell_volume   5154.91334548
_cell_formula_units_Z   2
loop_
 _symmetry_equiv_pos_site_id
 _symmetry_equiv_pos_as_xyz
  1  'x, y, z'
loop_
 _atom_site_type_symbol
 _atom_site_label
 _atom_site_symmetry_multiplicity
 _atom_site_fract_x
 _atom_site_fract_y
 _atom_site_fract_z
 _atom_site_occupancy
  C  C0  1  0.52175000  0.92755000  0.85010000  1
  C  C1  1  0.17165000  0.07745000  0.14990000  1
  C  C2  1  0.64251000  0.94181000  0.86702000  1
  C  C3  1  0.27549000  0.07479000  0.13298000  1
  C  C4  1  0.52360000  0.64840000  0.27640000  1
  C  C5  1  0.74720000  0.37200000  0.72360000  1
  C  C6  1  0.08782000  0.96822000  0.91244000  1
  C  C7  1  0.67538000  0.05578000  0.08756000  1
  C  C8  1  0.15235000  0.79675000  0.56670000  1
  C  C9  1  0.08565000  0.23005000  0.43330000  1
  C  C10  1  0.64345000  0.66705000  0.30010000  1
  C  C11  1  0.84335000  0.36695000  0.69990000  1
  C  C12  1  0.58820000  0.77000000  0.50540000  1
  C  C13  1  0.58280000  0.26460000  0.49460000  1
  C  C14  1  0.49898000  0.86588000  0.67736000  1
  C  C15  1  0.32162000  0.18852000  0.32264000  1
  C  C16  1  0.20601000  0.78821000  0.51902000  1
  C  C17  1  0.18699000  0.26919000  0.48098000  1
  C  C18  1  0.62201000  0.87231000  0.68662000  1
  C  C19  1  0.43539000  0.18569000  0.31338000  1
  C  C20  1  0.73673000  0.03493000  0.99646000  1
  C  C21  1  0.24027000  0.03847000  0.00354000  1
  C  C22  1  0.12768000  0.02748000  0.96776000  1
  C  C23  1  0.65992000  0.05972000  0.03224000  1
  C  C24  1  0.69590000  0.81310000  0.53280000  1
  C  C25  1  0.66310000  0.28030000  0.46720000  1
  C  C26  1  0.48940000  0.79100000  0.47940000  1
  C  C27  1  0.51000000  0.31160000  0.52060000  1
  C  C28  1  0.45535000  0.70385000  0.28210000  1
  C  C29  1  0.67325000  0.42175000  0.71790000  1
  C  C30  1  0.69740000  0.73970000  0.32880000  1
  C  C31  1  0.86860000  0.41090000  0.67120000  1
  C  C32  1  0.44334000  0.92384000  0.68508000  1
  C  C33  1  0.25826000  0.23876000  0.31492000  1
  C  C34  1  0.68540000  0.93860000  0.70480000  1
  C  C35  1  0.48060000  0.23380000  0.29520000  1
  C  C36  1  0.98457000  0.61527000  0.03034000  1
  C  C37  1  0.45423000  0.58493000  0.96966000  1
  C  C38  1  0.37663000  0.61213000  0.00786000  1
  C  C39  1  0.86877000  0.60427000  0.99214000  1
  C  C40  1  0.70400000  0.87880000  0.53360000  1
  C  C41  1  0.67040000  0.34520000  0.46640000  1
  C  C42  1  0.49050000  0.85500000  0.47980000  1
  C  C43  1  0.51070000  0.37520000  0.52020000  1
  C  C44  1  0.50709000  0.77209000  0.31018000  1
  C  C45  1  0.69691000  0.46191000  0.68982000  1
  C  C46  1  0.62368333  0.78868333  0.33336667  1
  C  C47  1  0.79031667  0.45531667  0.66663333  1
  C  C48  1  0.02500000  0.67760000  0.08840000  1
  C  C49  1  0.43660000  0.58920000  0.91160000  1
  C  C50  1  0.47569000  0.70179000  0.13318000  1
  C  C51  1  0.84251000  0.56861000  0.86682000  1
  C  C52  1  0.50805000  0.98695000  0.70090000  1
  C  C53  1  0.30715000  0.28605000  0.29910000  1
  C  C54  1  0.62680000  0.99480000  0.71080000  1
  C  C55  1  0.41600000  0.28400000  0.28920000  1
  C  C56  1  0.59937000  0.71797000  0.15354000  1
  C  C57  1  0.94583000  0.56443000  0.84646000  1
  C  C58  1  0.82220000  0.92960000  0.57000000  1
  C  C59  1  0.75220000  0.35960000  0.43000000  1
  C  C60  1  0.60090000  0.89930000  0.50720000  1
  C  C61  1  0.59370000  0.39210000  0.49280000  1
  C  C62  1  0.79328000  0.65308000  0.01156000  1
  C  C63  1  0.28172000  0.64152000  0.98844000  1
  C  C64  1  0.42958000  0.82958000  0.31436000  1
  C  C65  1  0.61522000  0.51522000  0.68564000  1
  C  C66  1  0.95020000  0.72760000  0.10620000  1
  C  C67  1  0.34400000  0.62140000  0.89380000  1
  C  C68  1  0.40858000  0.75498000  0.15036000  1
  C  C69  1  0.75822000  0.60462000  0.84964000  1
  C  C70  1  0.83342000  0.71492000  0.06964000  1
  C  C71  1  0.26378000  0.64528000  0.93036000  1
  C  C72  1  0.65289000  0.78769000  0.19078000  1
  C  C73  1  0.96211000  0.59691000  0.80922000  1
  C  C74  1  0.28789000  0.99549000  0.58418000  1
  C  C75  1  0.20371000  0.41131000  0.41582000  1
  C  C76  1  0.99233000  0.79623000  0.16546000  1
  C  C77  1  0.32687000  0.63077000  0.83454000  1
  C  C78  1  0.25987000  0.97767000  0.51874000  1
  C  C79  1  0.24113000  0.45893000  0.48126000  1
  C  C80  1  0.38783000  0.04243000  0.62486000  1
  C  C81  1  0.26297000  0.41757000  0.37514000  1
  C  C82  1  0.46107000  0.82567000  0.18654000  1
  C  C83  1  0.77453000  0.63913000  0.81346000  1
  C  C84  1  0.58667000  0.84187000  0.20674000  1
  C  C85  1  0.87993000  0.63513000  0.79326000  1
  C  C86  1  0.33465000  0.00645000  0.49650000  1
  C  C87  1  0.33815000  0.50995000  0.50350000  1
  C  C88  1  0.30883000  0.98283000  0.42506000  1
  C  C89  1  0.38377000  0.55777000  0.57494000  1
  C  C90  1  0.45832000  0.07442000  0.60244000  1
  C  C91  1  0.35588000  0.47198000  0.39756000  1
  C  C92  1  0.43207000  0.05867000  0.53994000  1
  C  C93  1  0.39213000  0.51873000  0.46006000  1
  C  C94  1  0.64263000  0.91843000  0.24586000  1
  C  C95  1  0.89677000  0.67257000  0.75414000  1
  C  C96  1  0.22045000  0.97195000  0.24370000  1
  C  C97  1  0.47675000  0.72825000  0.75630000  1
  C  C98  1  0.74219000  0.12619000  0.55078000  1
  C  C99  1  0.69141000  0.57541000  0.44922000  1
  C  C100  1  0.72193000  0.07543000  0.43406000  1
  C  C101  1  0.78787000  0.64137000  0.56594000  1
  C  C102  1  0.79493000  0.17943000  0.61306000  1
  C  C103  1  0.68187000  0.56637000  0.38694000  1
  C  C104  1  0.78381000  0.12681000  0.50182000  1
  C  C105  1  0.78199000  0.62499000  0.49818000  1
  C  C106  1  0.24228000  0.00868000  0.20576000  1
  C  C107  1  0.53652000  0.80292000  0.79424000  1
  C  C108  1  0.34536000  0.00876000  0.18752000  1
  C  C109  1  0.65784000  0.82124000  0.81248000  1
  C  C110  1  0.17698000  0.12658000  0.41356000  1
  C  C111  1  0.26342000  0.71302000  0.58644000  1
  C  C112  1  0.88170000  0.23150000  0.62300000  1
  C  C113  1  0.75870000  0.60850000  0.37700000  1
  C  C114  1  0.87489000  0.18079000  0.51498000  1
  C  C115  1  0.85991000  0.66581000  0.48502000  1
  C  C116  1  0.78612000  0.01822000  0.16984000  1
  C  C117  1  0.11628000  0.84838000  0.83016000  1
  C  C118  1  0.97434000  0.11054000  0.35128000  1
  C  C119  1  0.12306000  0.75926000  0.64872000  1
  C  C120  1  0.27860000  0.16550000  0.45920000  1
  C  C121  1  0.31940000  0.70630000  0.54080000  1
  C  C122  1  0.92494000  0.23184000  0.57408000  1
  C  C123  1  0.85086000  0.65776000  0.42592000  1
  C  C124  1  0.15352000  0.04442000  0.18704000  1
  C  C125  1  0.46648000  0.85738000  0.81296000  1
  C  C126  1  0.07784000  0.15754000  0.40028000  1
  C  C127  1  0.17756000  0.75726000  0.59972000  1
  C  C128  1  0.36456000  0.04126000  0.15092000  1
  C  C129  1  0.71364000  0.89034000  0.84908000  1
  C  C130  1  0.84618000  0.00258000  0.07096000  1
  C  C131  1  0.27522000  0.93162000  0.92904000  1
  C  C132  1  0.50521000  0.13001000  0.32002000  1
  C  C133  1  0.68519000  0.80999000  0.67998000  1
  C  C134  1  0.77073000  0.02613000  0.10926000  1
  C  C135  1  0.16147000  0.91687000  0.89074000  1
  C  C136  1  0.28399000  0.23729000  0.49458000  1
  C  C137  1  0.28941000  0.74271000  0.50542000  1
  C  C138  1  0.83179000  0.00579000  0.01558000  1
  C  C139  1  0.31621000  0.99021000  0.98442000  1
  H  H140  1  0.01010000  0.96080000  0.88800000  1
  H  H141  1  0.62210000  0.07280000  0.11200000  1
  H  H142  1  0.76240000  0.79850000  0.55040000  1
  H  H143  1  0.71200000  0.24810000  0.44960000  1
  H  H144  1  0.47700000  0.96400000  0.86320000  1
  H  H145  1  0.11380000  0.10080000  0.13680000  1
  H  H146  1  0.09950000  0.82900000  0.57660000  1
  H  H147  1  0.02290000  0.25240000  0.42340000  1
  H  H148  1  0.37300000  0.69250000  0.26600000  1
  H  H149  1  0.60700000  0.42650000  0.73400000  1
  H  H150  1  0.18610000  0.81330000  0.49540000  1
  H  H151  1  0.19070000  0.31790000  0.50460000  1
  H  H152  1  0.07790000  0.06080000  0.98140000  1
  H  H153  1  0.59650000  0.07940000  0.01860000  1
  H  H154  1  0.03440000  0.58180000  0.01740000  1
  H  H155  1  0.51700000  0.56440000  0.98260000  1
  H  H156  1  0.36140000  0.91970000  0.67940000  1
  H  H157  1  0.18200000  0.24030000  0.32060000  1
  H  H158  1  0.77960000  0.75300000  0.34400000  1
  H  H159  1  0.93560000  0.40900000  0.65600000  1
  H  H160  1  0.76780000  0.94470000  0.71280000  1
  H  H161  1  0.55500000  0.23190000  0.28720000  1
  H  H162  1  0.64540000  0.68200000  0.14220000  1
  H  H163  1  0.00320000  0.53980000  0.85780000  1
  H  H164  1  0.10110000  0.68510000  0.11460000  1
  H  H165  1  0.48650000  0.57050000  0.88540000  1
  H  H166  1  0.42230000  0.86890000  0.46280000  1
  H  H167  1  0.45950000  0.40610000  0.53720000  1
  H  H168  1  0.22990000  0.65880000  0.01380000  1
  H  H169  1  0.71610000  0.64500000  0.98620000  1
  H  H170  1  0.65740000  0.83650000  0.35400000  1
  H  H171  1  0.80340000  0.48250000  0.64600000  1
  H  H172  1  0.32600000  0.74350000  0.13760000  1
  H  H173  1  0.68840000  0.60590000  0.86240000  1
  H  H174  1  0.23810000  0.97530000  0.59960000  1
  H  H175  1  0.13850000  0.37570000  0.40040000  1
  H  H176  1  0.66950000  0.03890000  0.72200000  1
  H  H177  1  0.44750000  0.31690000  0.27800000  1
  H  H178  1  0.60630000  0.94380000  0.50800000  1
  H  H179  1  0.59830000  0.43580000  0.49200000  1
  H  H180  1  0.73540000  0.79830000  0.20540000  1
  H  H181  1  0.03000000  0.59290000  0.79460000  1
  H  H182  1  0.19090000  0.94650000  0.49100000  1
  H  H183  1  0.19990000  0.45550000  0.50900000  1
  H  H184  1  0.78210000  0.74710000  0.08360000  1
  H  H185  1  0.19850000  0.66350000  0.91640000  1
  H  H186  1  0.88110000  0.01510000  0.59200000  1
  H  H187  1  0.78910000  0.42310000  0.40800000  1
  H  H188  1  0.41480000  0.86160000  0.19720000  1
  H  H189  1  0.71760000  0.66440000  0.80280000  1
  H  H190  1  0.52520000  0.10740000  0.63060000  1
  H  H191  1  0.39460000  0.47680000  0.36940000  1
  H  H192  1  0.47860000  0.08250000  0.52580000  1
  H  H193  1  0.45280000  0.55670000  0.47420000  1
  H  H194  1  0.68060000  0.09130000  0.54280000  1
  H  H195  1  0.63780000  0.54850000  0.45720000  1
  H  H196  1  0.77060000  0.17900000  0.64720000  1
  H  H197  1  0.62340000  0.53180000  0.35280000  1
  H  H198  1  0.17340000  0.07780000  0.39040000  1
  H  H199  1  0.28300000  0.68740000  0.60960000  1
  H  H200  1  0.40430000  0.98590000  0.20040000  1
  H  H201  1  0.70390000  0.78550000  0.79960000  1
  H  H202  1  0.34390000  0.14370000  0.46640000  1
  H  H203  1  0.37750000  0.67730000  0.53360000  1
  H  H204  1  0.90160000  0.18110000  0.48140000  1
  H  H205  1  0.92020000  0.69970000  0.51860000  1
  H  H206  1  0.91070000  0.98340000  0.08420000  1
  H  H207  1  0.32650000  0.89920000  0.91580000  1
  H  H208  1  0.08340000  0.04580000  0.19960000  1
  H  H209  1  0.38380000  0.84620000  0.80040000  1
  H  H210  1  0.43490000  0.04070000  0.13880000  1
  H  H211  1  0.79610000  0.90190000  0.86120000  1
  H  H212  1  0.73020000  0.34380000  0.74260000  1
  H  H213  1  0.48760000  0.60120000  0.25740000  1
  H  H214  1  0.57700000  0.22090000  0.49560000  1
  H  H215  1  0.58140000  0.72530000  0.50440000  1
  H  H216  1  0.98700000  0.26660000  0.58200000  1
  H  H217  1  0.90500000  0.68460000  0.41800000  1
  H  H218  1  0.28860000  0.15630000  0.33400000  1
  H  H219  1  0.45460000  0.82230000  0.66600000  1
  H  H220  1  0.39380000  0.99820000  0.00940000  1
  H  H221  1  0.88440000  0.98880000  0.99060000  1
  Mn  Mn222  1  0.19144000  0.87755000  0.29212000  1
  Mn  Mn223  1  0.39932000  0.58543000  0.70788000  1
  Mn  Mn224  1  0.47877000  0.99320000  0.34324000  1
  Mn  Mn225  1  0.63553000  0.64996000  0.65676000  1
  Mn  Mn226  1  0.93249000  0.94569000  0.24576000  1
  Mn  Mn227  1  0.18673000  0.69993000  0.75424000  1
  Mn  Mn228  1  0.72738000  0.06006000  0.29858000  1
  Mn  Mn229  1  0.92880000  0.76148000  0.70142000  1
  O  O230  1  0.48786000  0.56666000  0.08652000  1
  O  O231  1  0.90134000  0.48014000  0.91348000  1
  O  O232  1  0.27766000  0.75296000  0.40032000  1
  O  O233  1  0.37734000  0.35264000  0.59968000  1
  O  O234  1  0.29230000  0.60560000  0.09600000  1
  O  O235  1  0.69630000  0.50960000  0.90400000  1
  O  O236  1  0.82746000  0.04276000  0.90832000  1
  O  O237  1  0.41914000  0.13444000  0.09168000  1
  O  O238  1  0.91300000  0.90950000  0.58020000  1
  O  O239  1  0.83280000  0.32930000  0.41980000  1
  O  O240  1  0.62921000  0.07851000  0.91482000  1
  O  O241  1  0.21439000  0.16369000  0.08518000  1
  O  O242  1  0.31950000  0.81180000  0.29160000  1
  O  O243  1  0.52790000  0.52020000  0.70840000  1
  O  O244  1  0.32364000  0.04924000  0.72428000  1
  O  O245  1  0.09936000  0.32496000  0.27572000  1
  O  O246  1  0.09490000  0.80240000  0.20060000  1
  O  O247  1  0.39430000  0.60180000  0.79940000  1
  O  O248  1  0.81530000  0.99000000  0.57380000  1
  O  O249  1  0.74150000  0.41620000  0.42620000  1
  O  O250  1  0.48606000  0.89256000  0.33892000  1
  O  O251  1  0.64714000  0.55364000  0.66108000  1
  O  O252  1  0.23082000  0.93122000  0.39024000  1
  O  O253  1  0.34058000  0.54098000  0.60976000  1
  O  O254  1  0.92476000  0.84166000  0.17472000  1
  O  O255  1  0.25004000  0.66694000  0.82528000  1
  O  O256  1  0.51653000  0.12663000  0.74166000  1
  O  O257  1  0.27487000  0.38497000  0.25834000  1
  O  O258  1  0.75354000  0.93364000  0.25648000  1
  O  O259  1  0.99706000  0.67716000  0.74352000  1
  O  O260  1  0.30490000  0.94310000  0.26360000  1
  O  O261  1  0.54130000  0.67950000  0.73640000  1
  O  O262  1  0.36975000  0.01705000  0.40790000  1
  O  O263  1  0.46185000  0.60915000  0.59210000  1
  O  O264  1  0.62695000  0.03865000  0.42470000  1
  O  O265  1  0.70225000  0.61395000  0.57530000  1
  O  O266  1  0.58034000  0.96544000  0.26698000  1
  O  O267  1  0.81336000  0.69846000  0.73302000  1
  O  O268  1  0.12244000  0.96574000  0.25428000  1
  O  O269  1  0.36816000  0.71146000  0.74572000  1
  O  O270  1  0.77226000  0.06856000  0.39272000  1
  O  O271  1  0.87954000  0.67584000  0.60728000  1
  O  O272  1  0.96365000  0.04745000  0.32630000  1
  O  O273  1  0.13735000  0.72115000  0.67370000  1
  O  O274  1  0.87322000  0.98762000  0.18164000  1
  O  O275  1  0.19158000  0.80598000  0.81836000  1
  O  O276  1  0.91097000  0.28007000  0.74574000  1
  O  O277  1  0.66523000  0.53433000  0.25426000  1
  O  O278  1  0.45909000  0.08999000  0.33778000  1
  O  O279  1  0.62131000  0.75221000  0.66222000  1
  O  O280  1  0.71662000  0.04122000  0.20304000  1
  O  O281  1  0.01358000  0.83818000  0.79696000  1
  O  O282  1  0.46279000  0.24019000  0.58258000  1
  O  O283  1  0.38021000  0.65761000  0.41742000  1
  O  O284  1  0.88220000  0.14110000  0.33660000  1
  O  O285  1  0.04560000  0.80450000  0.66340000  1
  O  O286  1  0.60437000  0.12987000  0.30814000  1
  O  O287  1  0.79623000  0.82173000  0.69186000  1
  O  O288  1  0.05710000  0.33010000  0.70600000  1
  O  O289  1  0.85110000  0.62410000  0.29400000  1
  S  S290  1  0.35378000  0.72918000  0.44236000  1
  S  S291  1  0.41142000  0.28682000  0.55764000  1
  S  S292  1  0.71197000  0.03207000  0.91894000  1
  S  S293  1  0.29303000  0.11313000  0.08106000  1
  S  S294  1  0.40415000  0.61416000  0.08292000  1
  S  S295  1  0.82123000  0.53124000  0.91708000  1
  S  S296  1  0.42853000  0.05843000  0.70508000  1
  S  S297  1  0.22345000  0.35335000  0.29492000  1
  S  S298  1  0.93516000  0.30346000  0.70102000  1
  S  S299  1  0.73414000  0.60244000  0.29898000  1
