# generated using pymatgen
data_Cu5H9(C3N4)9
_symmetry_space_group_name_H-M   'P 1'
_cell_length_a   16.18000000
_cell_length_b   23.00771788
_cell_length_c   24.13854607
_cell_angle_alpha   83.23223305
_cell_angle_beta   70.41842532
_cell_angle_gamma   69.41349660
_symmetry_Int_Tables_number   1
_chemical_formula_structural   Cu5H9(C3N4)9
_chemical_formula_sum   'Cu20 H36 C108 N144'
_cell_volume   7925.60046053
_cell_formula_units_Z   4
loop_
 _symmetry_equiv_pos_site_id
 _symmetry_equiv_pos_as_xyz
  1  'x, y, z'
loop_
 _atom_site_type_symbol
 _atom_site_label
 _atom_site_symmetry_multiplicity
 _atom_site_fract_x
 _atom_site_fract_y
 _atom_site_fract_z
 _atom_site_occupancy
  C  C0  1  0.11954000  0.03490000  0.72722000  1
  C  C1  1  0.38166000  0.46510000  0.77278000  1
  C  C2  1  0.81577000  0.05106000  0.34100000  1
  C  C3  1  0.70783000  0.44894000  0.15900000  1
  C  C4  1  0.74646000  0.14350000  0.40518000  1
  C  C5  1  0.79514000  0.35650000  0.09482000  1
  C  C6  1  0.57777000  0.72780000  0.16240000  1
  C  C7  1  0.96797000  0.77220000  0.33760000  1
  C  C8  1  0.69219000  0.50918000  0.17304000  1
  C  C9  1  0.87441000  0.99082000  0.32696000  1
  C  C10  1  0.80670000  0.07852000  0.39228000  1
  C  C11  1  0.77750000  0.42148000  0.10772000  1
  C  C12  1  0.08517000  0.23782000  0.69644000  1
  C  C13  1  0.51943000  0.26218000  0.80356000  1
  C  C14  1  0.05473000  0.23798000  0.75776000  1
  C  C15  1  0.55047000  0.26202000  0.74224000  1
  C  C16  1  0.74344000  0.54274000  0.13498000  1
  C  C17  1  0.92116000  0.95726000  0.36502000  1
  C  C18  1  0.58382000  0.55104000  0.46008000  1
  C  C19  1  0.09494000  0.94896000  0.03992000  1
  C  C20  1  0.85346000  0.04452000  0.43036000  1
  C  C21  1  0.82834000  0.45548000  0.06964000  1
  C  C22  1  0.81175000  0.51686000  0.08284000  1
  C  C23  1  0.91145000  0.98314000  0.41716000  1
  C  C24  1  0.67658000  0.25000000  0.64684000  1
  C  C25  1  0.64424000  0.25000000  0.71152000  1
  C  C26  1  0.58353000  0.25000000  0.83294000  1
  C  C27  1  0.16647000  0.25000000  0.66706000  1
  C  C28  1  0.10576000  0.25000000  0.78848000  1
  C  C29  1  0.07342000  0.25000000  0.85316000  1
  C  C30  1  0.67139000  0.51686000  0.41716000  1
  C  C31  1  0.10541000  0.98314000  0.08284000  1
  C  C32  1  0.10202000  0.04452000  0.06964000  1
  C  C33  1  0.71618000  0.45548000  0.43036000  1
  C  C34  1  0.86514000  0.55104000  0.03992000  1
  C  C35  1  0.95610000  0.94896000  0.46008000  1
  C  C36  1  0.71382000  0.54274000  0.36502000  1
  C  C37  1  0.12158000  0.95726000  0.13498000  1
  C  C38  1  0.70729000  0.23798000  0.74224000  1
  C  C39  1  0.18751000  0.26202000  0.75776000  1
  C  C40  1  0.67701000  0.23782000  0.80356000  1
  C  C41  1  0.21839000  0.26218000  0.69644000  1
  C  C42  1  0.11478000  0.07852000  0.10772000  1
  C  C43  1  0.80102000  0.42148000  0.39228000  1
  C  C44  1  0.79863000  0.50918000  0.32696000  1
  C  C45  1  0.13477000  0.99082000  0.17304000  1
  C  C46  1  0.69443000  0.72780000  0.33760000  1
  C  C47  1  0.25983000  0.77220000  0.16240000  1
  C  C48  1  0.11004000  0.14350000  0.09482000  1
  C  C49  1  0.84836000  0.35650000  0.40518000  1
  C  C50  1  0.13317000  0.05106000  0.15900000  1
  C  C51  1  0.84323000  0.44894000  0.34100000  1
  C  C52  1  0.84556000  0.03490000  0.77278000  1
  C  C53  1  0.15324000  0.46510000  0.72722000  1
  C  C54  1  0.84676000  0.53490000  0.27278000  1
  C  C55  1  0.15444000  0.96510000  0.22722000  1
  C  C56  1  0.15677000  0.55106000  0.65900000  1
  C  C57  1  0.86683000  0.94894000  0.84100000  1
  C  C58  1  0.15164000  0.64350000  0.59482000  1
  C  C59  1  0.88996000  0.85650000  0.90518000  1
  C  C60  1  0.74017000  0.22780000  0.83760000  1
  C  C61  1  0.30557000  0.27220000  0.66240000  1
  C  C62  1  0.86523000  0.00918000  0.82696000  1
  C  C63  1  0.20137000  0.49082000  0.67304000  1
  C  C64  1  0.19898000  0.57852000  0.60772000  1
  C  C65  1  0.88522000  0.92148000  0.89228000  1
  C  C66  1  0.78161000  0.73782000  0.30356000  1
  C  C67  1  0.32299000  0.76218000  0.19644000  1
  C  C68  1  0.81249000  0.73798000  0.24224000  1
  C  C69  1  0.29271000  0.76202000  0.25776000  1
  C  C70  1  0.87842000  0.04274000  0.86502000  1
  C  C71  1  0.28618000  0.45726000  0.63498000  1
  C  C72  1  0.04390000  0.05104000  0.53992000  1
  C  C73  1  0.13486000  0.44896000  0.96008000  1
  C  C74  1  0.28382000  0.54452000  0.56964000  1
  C  C75  1  0.89798000  0.95548000  0.93036000  1
  C  C76  1  0.89459000  0.01686000  0.91716000  1
  C  C77  1  0.32861000  0.48314000  0.58284000  1
  C  C78  1  0.92658000  0.75000000  0.14684000  1
  C  C79  1  0.89424000  0.75000000  0.21152000  1
  C  C80  1  0.83353000  0.75000000  0.33294000  1
  C  C81  1  0.41647000  0.75000000  0.16706000  1
  C  C82  1  0.35576000  0.75000000  0.28848000  1
  C  C83  1  0.32342000  0.75000000  0.35316000  1
  C  C84  1  0.08855000  0.01686000  0.58284000  1
  C  C85  1  0.18825000  0.48314000  0.91716000  1
  C  C86  1  0.17166000  0.54452000  0.93036000  1
  C  C87  1  0.14654000  0.95548000  0.56964000  1
  C  C88  1  0.90506000  0.05104000  0.96008000  1
  C  C89  1  0.41618000  0.44896000  0.53992000  1
  C  C90  1  0.07884000  0.04274000  0.63498000  1
  C  C91  1  0.25656000  0.45726000  0.86502000  1
  C  C92  1  0.44953000  0.73798000  0.25776000  1
  C  C93  1  0.94527000  0.76202000  0.24224000  1
  C  C94  1  0.48057000  0.73782000  0.19644000  1
  C  C95  1  0.91483000  0.76218000  0.30356000  1
  C  C96  1  0.22250000  0.57852000  0.89228000  1
  C  C97  1  0.19330000  0.92148000  0.60772000  1
  C  C98  1  0.12559000  0.00918000  0.67304000  1
  C  C99  1  0.30781000  0.49082000  0.82696000  1
  C  C100  1  0.03203000  0.22780000  0.66240000  1
  C  C101  1  0.42223000  0.27220000  0.83760000  1
  C  C102  1  0.20486000  0.64350000  0.90518000  1
  C  C103  1  0.25354000  0.85650000  0.59482000  1
  C  C104  1  0.29217000  0.55106000  0.84100000  1
  C  C105  1  0.18423000  0.94894000  0.65900000  1
  C  C106  1  0.61834000  0.53490000  0.22722000  1
  C  C107  1  0.88046000  0.96510000  0.27278000  1
  Cu  Cu108  1  0.49242000  0.64242000  0.37510000  1
  Cu  Cu109  1  0.00994000  0.85758000  0.12490000  1
  Cu  Cu110  1  0.96589000  0.18408000  0.02104000  1
  Cu  Cu111  1  0.67101000  0.31592000  0.47896000  1
  Cu  Cu112  1  0.67783000  0.64434000  0.25000000  1
  Cu  Cu113  1  0.07217000  0.85566000  0.25000000  1
  Cu  Cu114  1  0.85003000  0.18408000  0.47896000  1
  Cu  Cu115  1  0.01307000  0.31592000  0.02104000  1
  Cu  Cu116  1  0.86516000  0.64242000  0.12490000  1
  Cu  Cu117  1  0.13248000  0.85758000  0.37510000  1
  Cu  Cu118  1  0.86752000  0.14242000  0.62490000  1
  Cu  Cu119  1  0.13484000  0.35758000  0.87510000  1
  Cu  Cu120  1  0.98693000  0.68408000  0.97896000  1
  Cu  Cu121  1  0.14997000  0.81592000  0.52104000  1
  Cu  Cu122  1  0.92783000  0.14434000  0.75000000  1
  Cu  Cu123  1  0.32217000  0.35566000  0.75000000  1
  Cu  Cu124  1  0.32899000  0.68408000  0.52104000  1
  Cu  Cu125  1  0.03411000  0.81592000  0.97896000  1
  Cu  Cu126  1  0.99006000  0.14242000  0.87510000  1
  Cu  Cu127  1  0.50758000  0.35758000  0.62490000  1
  H  H128  1  0.99990000  0.23000000  0.77820000  1
  H  H129  1  0.50810000  0.27000000  0.72180000  1
  H  H130  1  0.32820000  0.57340000  0.81620000  1
  H  H131  1  0.21780000  0.92660000  0.68380000  1
  H  H132  1  0.73230000  0.58340000  0.14440000  1
  H  H133  1  0.96010000  0.91660000  0.35560000  1
  H  H134  1  0.84620000  0.06260000  0.46500000  1
  H  H135  1  0.87380000  0.43740000  0.03500000  1
  H  H136  1  0.56310000  0.25000000  0.87380000  1
  H  H137  1  0.18690000  0.25000000  0.62620000  1
  H  H138  1  0.09120000  0.06260000  0.03500000  1
  H  H139  1  0.68880000  0.43740000  0.46500000  1
  H  H140  1  0.68430000  0.58340000  0.35560000  1
  H  H141  1  0.12330000  0.91660000  0.14440000  1
  H  H142  1  0.09840000  0.57340000  0.68380000  1
  H  H143  1  0.85560000  0.92660000  0.81620000  1
  H  H144  1  0.77010000  0.23000000  0.72180000  1
  H  H145  1  0.22190000  0.27000000  0.77820000  1
  H  H146  1  0.77810000  0.73000000  0.22180000  1
  H  H147  1  0.22990000  0.77000000  0.27820000  1
  H  H148  1  0.14440000  0.07340000  0.18380000  1
  H  H149  1  0.90160000  0.42660000  0.31620000  1
  H  H150  1  0.87670000  0.08340000  0.85560000  1
  H  H151  1  0.31570000  0.41660000  0.64440000  1
  H  H152  1  0.31120000  0.56260000  0.53500000  1
  H  H153  1  0.90880000  0.93740000  0.96500000  1
  H  H154  1  0.81310000  0.75000000  0.37380000  1
  H  H155  1  0.43690000  0.75000000  0.12620000  1
  H  H156  1  0.12620000  0.56260000  0.96500000  1
  H  H157  1  0.15380000  0.93740000  0.53500000  1
  H  H158  1  0.03990000  0.08340000  0.64440000  1
  H  H159  1  0.26770000  0.41660000  0.85560000  1
  H  H160  1  0.78220000  0.07340000  0.31620000  1
  H  H161  1  0.67180000  0.42660000  0.18380000  1
  H  H162  1  0.49190000  0.73000000  0.27820000  1
  H  H163  1  0.00010000  0.77000000  0.22180000  1
  N  N164  1  0.44812000  0.61552000  0.50324000  1
  N  N165  1  0.06688000  0.88448000  0.99676000  1
  N  N166  1  0.07197000  0.08800000  0.80658000  1
  N  N167  1  0.46655000  0.41200000  0.69342000  1
  N  N168  1  0.68810000  0.23706000  0.43694000  1
  N  N169  1  0.86210000  0.26294000  0.06306000  1
  N  N170  1  0.60724000  0.58256000  0.25876000  1
  N  N171  1  0.94856000  0.91744000  0.24124000  1
  N  N172  1  0.60619000  0.74460000  0.10642000  1
  N  N173  1  0.95721000  0.75540000  0.39358000  1
  N  N174  1  0.51147000  0.59674000  0.45106000  1
  N  N175  1  0.05927000  0.90326000  0.04894000  1
  N  N176  1  0.22490000  0.73014000  0.90626000  1
  N  N177  1  0.36130000  0.76986000  0.59374000  1
  N  N178  1  0.48134000  0.58140000  0.54452000  1
  N  N179  1  0.10726000  0.91860000  0.95548000  1
  N  N180  1  0.26861000  0.67206000  0.88492000  1
  N  N181  1  0.32559000  0.82794000  0.61508000  1
  N  N182  1  0.18205000  0.01094000  0.75556000  1
  N  N183  1  0.44855000  0.48906000  0.74444000  1
  N  N184  1  0.75759000  0.18254000  0.43748000  1
  N  N185  1  0.87761000  0.31746000  0.06252000  1
  N  N186  1  0.15271000  0.04376000  0.80462000  1
  N  N187  1  0.50109000  0.45624000  0.69538000  1
  N  N188  1  0.03750000  0.20852000  0.88648000  1
  N  N189  1  0.63250000  0.29148000  0.61352000  1
  N  N190  1  0.65277000  0.69922000  0.17912000  1
  N  N191  1  0.03111000  0.80078000  0.32088000  1
  N  N192  1  0.56521000  0.54154000  0.51784000  1
  N  N193  1  0.12459000  0.95846000  0.98216000  1
  N  N194  1  0.01752000  0.22520000  0.94256000  1
  N  N195  1  0.68528000  0.27480000  0.55744000  1
  N  N196  1  0.69874000  0.72642000  0.08852000  1
  N  N197  1  0.01368000  0.77358000  0.41148000  1
  N  N198  1  0.57412000  0.69838000  0.36652000  1
  N  N199  1  0.13902000  0.80162000  0.13348000  1
  N  N200  1  0.72750000  0.69838000  0.13348000  1
  N  N201  1  0.05936000  0.80162000  0.36652000  1
  N  N202  1  0.57484000  0.72642000  0.41148000  1
  N  N203  1  0.21274000  0.77358000  0.08852000  1
  N  N204  1  0.75728000  0.22520000  0.55744000  1
  N  N205  1  0.03992000  0.27480000  0.94256000  1
  N  N206  1  0.89325000  0.54154000  0.98216000  1
  N  N207  1  0.91695000  0.95846000  0.51784000  1
  N  N208  1  0.64801000  0.69922000  0.32088000  1
  N  N209  1  0.16811000  0.80078000  0.17912000  1
  N  N210  1  0.75398000  0.20852000  0.61352000  1
  N  N211  1  0.07602000  0.29148000  0.88648000  1
  N  N212  1  0.80353000  0.04376000  0.69538000  1
  N  N213  1  0.04267000  0.45624000  0.80462000  1
  N  N214  1  0.05987000  0.18254000  0.06252000  1
  N  N215  1  0.80493000  0.31746000  0.43748000  1
  N  N216  1  0.80701000  0.01094000  0.74444000  1
  N  N217  1  0.06239000  0.48906000  0.75556000  1
  N  N218  1  0.05933000  0.67206000  0.61508000  1
  N  N219  1  0.84647000  0.82794000  0.88492000  1
  N  N220  1  0.93726000  0.58140000  0.95548000  1
  N  N221  1  0.97414000  0.91860000  0.54452000  1
  N  N222  1  0.04496000  0.73014000  0.59374000  1
  N  N223  1  0.86884000  0.76986000  0.90626000  1
  N  N224  1  0.89179000  0.59674000  0.04894000  1
  N  N225  1  0.03747000  0.90326000  0.45106000  1
  N  N226  1  0.64921000  0.74460000  0.39358000  1
  N  N227  1  0.28739000  0.75540000  0.10642000  1
  N  N228  1  0.81020000  0.58256000  0.24124000  1
  N  N229  1  0.13400000  0.91744000  0.25876000  1
  N  N230  1  0.07484000  0.23706000  0.06306000  1
  N  N231  1  0.87496000  0.26294000  0.43694000  1
  N  N232  1  0.84003000  0.08800000  0.69342000  1
  N  N233  1  0.12145000  0.41200000  0.80658000  1
  N  N234  1  0.93636000  0.61552000  0.99676000  1
  N  N235  1  0.04864000  0.88448000  0.50324000  1
  N  N236  1  0.95136000  0.11552000  0.49676000  1
  N  N237  1  0.06364000  0.38448000  0.00324000  1
  N  N238  1  0.87855000  0.58800000  0.19342000  1
  N  N239  1  0.15997000  0.91200000  0.30658000  1
  N  N240  1  0.12504000  0.73706000  0.56306000  1
  N  N241  1  0.92516000  0.76294000  0.93694000  1
  N  N242  1  0.86600000  0.08256000  0.74124000  1
  N  N243  1  0.18980000  0.41744000  0.75876000  1
  N  N244  1  0.71261000  0.24460000  0.89358000  1
  N  N245  1  0.35079000  0.25540000  0.60642000  1
  N  N246  1  0.96253000  0.09674000  0.54894000  1
  N  N247  1  0.10821000  0.40326000  0.95106000  1
  N  N248  1  0.13116000  0.23014000  0.09374000  1
  N  N249  1  0.95504000  0.26986000  0.40626000  1
  N  N250  1  0.02586000  0.08140000  0.45548000  1
  N  N251  1  0.06274000  0.41860000  0.04452000  1
  N  N252  1  0.15353000  0.17206000  0.11508000  1
  N  N253  1  0.94067000  0.32794000  0.38492000  1
  N  N254  1  0.93761000  0.51094000  0.24444000  1
  N  N255  1  0.19299000  0.98906000  0.25556000  1
  N  N256  1  0.19507000  0.68254000  0.56252000  1
  N  N257  1  0.94013000  0.81746000  0.93748000  1
  N  N258  1  0.95733000  0.54376000  0.19538000  1
  N  N259  1  0.19647000  0.95624000  0.30462000  1
  N  N260  1  0.92398000  0.70852000  0.11352000  1
  N  N261  1  0.24602000  0.79148000  0.38648000  1
  N  N262  1  0.83189000  0.19922000  0.82088000  1
  N  N263  1  0.35199000  0.30078000  0.67912000  1
  N  N264  1  0.08305000  0.04154000  0.48216000  1
  N  N265  1  0.10675000  0.45846000  0.01784000  1
  N  N266  1  0.96008000  0.72520000  0.05744000  1
  N  N267  1  0.24272000  0.77480000  0.44256000  1
  N  N268  1  0.78726000  0.22642000  0.91148000  1
  N  N269  1  0.42516000  0.27358000  0.58852000  1
  N  N270  1  0.94064000  0.19838000  0.63348000  1
  N  N271  1  0.27250000  0.30162000  0.86652000  1
  N  N272  1  0.86098000  0.19838000  0.86652000  1
  N  N273  1  0.42588000  0.30162000  0.63348000  1
  N  N274  1  0.98632000  0.22642000  0.58852000  1
  N  N275  1  0.30126000  0.27358000  0.91148000  1
  N  N276  1  0.31472000  0.72520000  0.44256000  1
  N  N277  1  0.98248000  0.77480000  0.05744000  1
  N  N278  1  0.87541000  0.04154000  0.01784000  1
  N  N279  1  0.43479000  0.45846000  0.48216000  1
  N  N280  1  0.96889000  0.19922000  0.67912000  1
  N  N281  1  0.34723000  0.30078000  0.82088000  1
  N  N282  1  0.36750000  0.70852000  0.38648000  1
  N  N283  1  0.96250000  0.79148000  0.11352000  1
  N  N284  1  0.49891000  0.54376000  0.30462000  1
  N  N285  1  0.84729000  0.95624000  0.19538000  1
  N  N286  1  0.12239000  0.68254000  0.93748000  1
  N  N287  1  0.24241000  0.81746000  0.56252000  1
  N  N288  1  0.55145000  0.51094000  0.25556000  1
  N  N289  1  0.81795000  0.98906000  0.24444000  1
  N  N290  1  0.67441000  0.17206000  0.38492000  1
  N  N291  1  0.73139000  0.32794000  0.11508000  1
  N  N292  1  0.89274000  0.08140000  0.04452000  1
  N  N293  1  0.51866000  0.41860000  0.45548000  1
  N  N294  1  0.63870000  0.23014000  0.40626000  1
  N  N295  1  0.77510000  0.26986000  0.09374000  1
  N  N296  1  0.94073000  0.09674000  0.95106000  1
  N  N297  1  0.48853000  0.40326000  0.54894000  1
  N  N298  1  0.04279000  0.24460000  0.60642000  1
  N  N299  1  0.39381000  0.25540000  0.89358000  1
  N  N300  1  0.05144000  0.08256000  0.75876000  1
  N  N301  1  0.39276000  0.41744000  0.74124000  1
  N  N302  1  0.13790000  0.73706000  0.93694000  1
  N  N303  1  0.31190000  0.76294000  0.56306000  1
  N  N304  1  0.53345000  0.58800000  0.30658000  1
  N  N305  1  0.92803000  0.91200000  0.19342000  1
  N  N306  1  0.93312000  0.11552000  0.00324000  1
  N  N307  1  0.55188000  0.38448000  0.49676000  1
