# generated using pymatgen
data_AgH8(CN)2
_symmetry_space_group_name_H-M   'P 1'
_cell_length_a   6.11500000
_cell_length_b   7.37338771
_cell_length_c   7.37338771
_cell_angle_alpha   87.73055843
_cell_angle_beta   72.63104001
_cell_angle_gamma   72.63104001
_symmetry_Int_Tables_number   1
_chemical_formula_structural   AgH8(CN)2
_chemical_formula_sum   'Ag2 H16 C4 N4'
_cell_volume   302.37841581
_cell_formula_units_Z   2
loop_
 _symmetry_equiv_pos_site_id
 _symmetry_equiv_pos_as_xyz
  1  'x, y, z'
loop_
 _atom_site_type_symbol
 _atom_site_label
 _atom_site_symmetry_multiplicity
 _atom_site_fract_x
 _atom_site_fract_y
 _atom_site_fract_z
 _atom_site_occupancy
  Ag  Ag0  1  0.00000000  0.50000000  0.50000000  1
  Ag  Ag1  1  0.50000000  0.50000000  0.50000000  1
  C  C2  1  0.46400000  0.10110000  0.52890000  1
  C  C3  1  0.96400000  0.52890000  0.10110000  1
  C  C4  1  0.53600000  0.89890000  0.47110000  1
  C  C5  1  0.03600000  0.47110000  0.89890000  1
  H  H6  1  0.46790000  0.11410000  0.65810000  1
  H  H7  1  0.96790000  0.65810000  0.11410000  1
  H  H8  1  0.30140000  0.16170000  0.52570000  1
  H  H9  1  0.80140000  0.52570000  0.16170000  1
  H  H10  1  0.77860000  0.14120000  0.40480000  1
  H  H11  1  0.27860000  0.40480000  0.14120000  1
  H  H12  1  0.37490000  0.81620000  0.71960000  1
  H  H13  1  0.87490000  0.71960000  0.81620000  1
  H  H14  1  0.62510000  0.18380000  0.28040000  1
  H  H15  1  0.12510000  0.28040000  0.18380000  1
  H  H16  1  0.22140000  0.85880000  0.59520000  1
  H  H17  1  0.72140000  0.59520000  0.85880000  1
  H  H18  1  0.69860000  0.83830000  0.47430000  1
  H  H19  1  0.19860000  0.47430000  0.83830000  1
  H  H20  1  0.53210000  0.88590000  0.34190000  1
  H  H21  1  0.03210000  0.34190000  0.88590000  1
  N  N22  1  0.62700000  0.19500000  0.40100000  1
  N  N23  1  0.12700000  0.40100000  0.19500000  1
  N  N24  1  0.37300000  0.80500000  0.59900000  1
  N  N25  1  0.87300000  0.59900000  0.80500000  1
