# generated using pymatgen
data_MnH4(C2O)4
_symmetry_space_group_name_H-M   'P 1'
_cell_length_a   10.72800000
_cell_length_b   13.50010000
_cell_length_c   14.39970000
_cell_angle_alpha   76.70420000
_cell_angle_beta   68.12970000
_cell_angle_gamma   66.58870000
_symmetry_Int_Tables_number   1
_chemical_formula_structural   MnH4(C2O)4
_chemical_formula_sum   'Mn6 H24 C48 O24'
_cell_volume   1767.82538835
_cell_formula_units_Z   6
loop_
 _symmetry_equiv_pos_site_id
 _symmetry_equiv_pos_as_xyz
  1  'x, y, z'
loop_
 _atom_site_type_symbol
 _atom_site_label
 _atom_site_symmetry_multiplicity
 _atom_site_fract_x
 _atom_site_fract_y
 _atom_site_fract_z
 _atom_site_occupancy
  Mn  Mn0  1  0.14232000  0.96103000  0.89025000  1
  Mn  Mn1  1  0.21729000  0.75000000  0.75000000  1
  Mn  Mn2  1  0.49360000  0.53897000  0.60975000  1
  Mn  Mn3  1  0.50640000  0.46103000  0.39025000  1
  Mn  Mn4  1  0.78271000  0.25000000  0.25000000  1
  Mn  Mn5  1  0.85768000  0.03897000  0.10975000  1
  H  H6  1  0.04550000  0.45850000  0.09190000  1
  H  H7  1  0.09590000  0.04150000  0.40810000  1
  H  H8  1  0.13470000  0.59150000  0.99090000  1
  H  H9  1  0.13720000  0.81310000  0.25270000  1
  H  H10  1  0.20120000  0.18130000  0.84690000  1
  H  H11  1  0.21710000  0.90850000  0.50910000  1
  H  H12  1  0.27060000  0.68130000  0.34690000  1
  H  H13  1  0.29700000  0.31310000  0.75270000  1
  H  H14  1  0.33990000  0.62390000  0.11530000  1
  H  H15  1  0.34370000  0.66110000  0.94870000  1
  H  H16  1  0.42090000  0.12390000  0.61530000  1
  H  H17  1  0.45350000  0.83890000  0.55130000  1
  H  H18  1  0.54650000  0.16110000  0.44870000  1
  H  H19  1  0.57910000  0.87610000  0.38470000  1
  H  H20  1  0.65630000  0.33890000  0.05130000  1
  H  H21  1  0.66010000  0.37610000  0.88470000  1
  H  H22  1  0.70300000  0.68690000  0.24730000  1
  H  H23  1  0.72940000  0.31870000  0.65310000  1
  H  H24  1  0.78290000  0.09150000  0.49090000  1
  H  H25  1  0.79880000  0.81870000  0.15310000  1
  H  H26  1  0.86280000  0.18690000  0.74730000  1
  H  H27  1  0.86530000  0.40850000  0.00910000  1
  H  H28  1  0.90410000  0.95850000  0.59190000  1
  H  H29  1  0.95450000  0.54150000  0.90810000  1
  C  C30  1  0.00547000  0.46899000  0.89687000  1
  C  C31  1  0.01383000  0.02535000  0.26019000  1
  C  C32  1  0.02512000  0.28128000  0.93908000  1
  C  C33  1  0.03167000  0.80470000  0.99596000  1
  C  C34  1  0.04879000  0.61074000  0.04308000  1
  C  C35  1  0.10375000  0.94062000  0.32048000  1
  C  C36  1  0.12867000  0.96899000  0.39687000  1
  C  C37  1  0.13515000  0.44062000  0.82048000  1
  C  C38  1  0.15303000  0.25333000  0.86081000  1
  C  C39  1  0.15494000  0.83262000  0.30310000  1
  C  C40  1  0.20063000  0.52535000  0.76019000  1
  C  C41  1  0.20261000  0.88926000  0.45692000  1
  C  C42  1  0.20934000  0.33262000  0.80310000  1
  C  C43  1  0.23283000  0.75333000  0.36081000  1
  C  C44  1  0.25452000  0.78128000  0.43908000  1
  C  C45  1  0.33233000  0.69530000  0.50404000  1
  C  C46  1  0.33890000  0.95571000  0.70589000  1
  C  C47  1  0.40435000  0.57426000  0.06904000  1
  C  C48  1  0.40630000  0.59634000  0.96926000  1
  C  C49  1  0.42379000  0.97791000  0.59951000  1
  C  C50  1  0.45235000  0.07426000  0.56904000  1
  C  C51  1  0.47190000  0.90366000  0.53074000  1
  C  C52  1  0.49879000  0.47791000  0.09951000  1
  C  C53  1  0.49950000  0.45571000  0.20589000  1
  C  C54  1  0.50050000  0.54429000  0.79411000  1
  C  C55  1  0.50121000  0.52209000  0.90049000  1
  C  C56  1  0.52810000  0.09634000  0.46926000  1
  C  C57  1  0.54765000  0.92574000  0.43096000  1
  C  C58  1  0.57621000  0.02209000  0.40049000  1
  C  C59  1  0.59370000  0.40366000  0.03074000  1
  C  C60  1  0.59565000  0.42574000  0.93096000  1
  C  C61  1  0.66110000  0.04429000  0.29411000  1
  C  C62  1  0.66767000  0.30470000  0.49596000  1
  C  C63  1  0.74548000  0.21872000  0.56092000  1
  C  C64  1  0.76717000  0.24667000  0.63919000  1
  C  C65  1  0.79066000  0.66738000  0.19690000  1
  C  C66  1  0.79739000  0.11074000  0.54308000  1
  C  C67  1  0.79937000  0.47465000  0.23981000  1
  C  C68  1  0.84506000  0.16738000  0.69690000  1
  C  C69  1  0.84697000  0.74667000  0.13919000  1
  C  C70  1  0.86485000  0.55938000  0.17952000  1
  C  C71  1  0.87133000  0.03101000  0.60313000  1
  C  C72  1  0.89625000  0.05938000  0.67952000  1
  C  C73  1  0.95121000  0.38926000  0.95692000  1
  C  C74  1  0.96833000  0.19530000  0.00404000  1
  C  C75  1  0.97488000  0.71872000  0.06092000  1
  C  C76  1  0.98617000  0.97465000  0.73981000  1
  C  C77  1  0.99453000  0.53101000  0.10313000  1
  O  O78  1  0.00030000  0.00848000  0.80812000  1
  O  O79  1  0.01825000  0.10115000  0.97595000  1
  O  O80  1  0.04157000  0.87873000  0.71653000  1
  O  O81  1  0.13104000  0.78359000  0.91373000  1
  O  O82  1  0.13683000  0.62127000  0.78347000  1
  O  O83  1  0.28937000  0.02716000  0.76510000  1
  O  O84  1  0.31690000  0.49152000  0.69188000  1
  O  O85  1  0.31850000  0.86643000  0.73397000  1
  O  O86  1  0.32836000  0.71641000  0.58627000  1
  O  O87  1  0.40465000  0.60115000  0.47595000  1
  O  O88  1  0.41837000  0.52716000  0.26510000  1
  O  O89  1  0.41890000  0.63357000  0.76603000  1
  O  O90  1  0.58110000  0.36643000  0.23397000  1
  O  O91  1  0.58163000  0.47284000  0.73490000  1
  O  O92  1  0.59535000  0.39885000  0.52405000  1
  O  O93  1  0.67164000  0.28359000  0.41373000  1
  O  O94  1  0.68150000  0.13357000  0.26603000  1
  O  O95  1  0.68310000  0.50848000  0.30812000  1
  O  O96  1  0.71063000  0.97284000  0.23490000  1
  O  O97  1  0.86317000  0.37873000  0.21653000  1
  O  O98  1  0.86896000  0.21641000  0.08627000  1
  O  O99  1  0.95843000  0.12127000  0.28347000  1
  O  O100  1  0.98175000  0.89885000  0.02405000  1
  O  O101  1  0.99970000  0.99152000  0.19188000  1
