# generated using pymatgen
data_EuH2C7(NO3)2
_symmetry_space_group_name_H-M   'P 1'
_cell_length_a   7.98100000
_cell_length_b   9.72300000
_cell_length_c   15.90900000
_cell_angle_alpha   90.00000000
_cell_angle_beta   90.00000000
_cell_angle_gamma   96.29000000
_symmetry_Int_Tables_number   1
_chemical_formula_structural   EuH2C7(NO3)2
_chemical_formula_sum   'Eu4 H8 C28 N8 O24'
_cell_volume   1227.09493876
_cell_formula_units_Z   4
loop_
 _symmetry_equiv_pos_site_id
 _symmetry_equiv_pos_as_xyz
  1  'x, y, z'
loop_
 _atom_site_type_symbol
 _atom_site_label
 _atom_site_symmetry_multiplicity
 _atom_site_fract_x
 _atom_site_fract_y
 _atom_site_fract_z
 _atom_site_occupancy
  Eu  Eu0  1  0.07870000  0.86554000  0.67323000  1
  Eu  Eu1  1  0.42130000  0.63446000  0.17323000  1
  Eu  Eu2  1  0.57870000  0.36554000  0.82677000  1
  Eu  Eu3  1  0.92130000  0.13446000  0.32677000  1
  H  H4  1  0.03140000  0.31504000  0.61209000  1
  H  H5  1  0.11737000  0.84707000  0.24853000  1
  H  H6  1  0.38263000  0.65293000  0.74853000  1
  H  H7  1  0.46860000  0.18496000  0.11209000  1
  H  H8  1  0.53140000  0.81504000  0.88791000  1
  H  H9  1  0.61737000  0.34707000  0.25147000  1
  H  H10  1  0.88263000  0.15293000  0.75147000  1
  H  H11  1  0.96860000  0.68496000  0.38791000  1
  C  C12  1  0.05680000  0.42430000  0.41850000  1
  C  C13  1  0.08590000  0.52510000  0.63170000  1
  C  C14  1  0.08990000  0.99030000  0.48410000  1
  C  C15  1  0.10390000  0.38510000  0.64080000  1
  C  C16  1  0.18970000  0.91950000  0.21910000  1
  C  C17  1  0.23080000  0.35180000  0.69370000  1
  C  C18  1  0.24380000  0.29600000  0.21560000  1
  C  C19  1  0.25620000  0.20400000  0.71560000  1
  C  C20  1  0.26920000  0.14820000  0.19370000  1
  C  C21  1  0.31030000  0.58050000  0.71910000  1
  C  C22  1  0.39610000  0.11490000  0.14080000  1
  C  C23  1  0.41010000  0.50970000  0.98410000  1
  C  C24  1  0.41410000  0.97490000  0.13170000  1
  C  C25  1  0.44320000  0.07570000  0.91850000  1
  C  C26  1  0.55680000  0.92430000  0.08150000  1
  C  C27  1  0.58590000  0.02510000  0.86830000  1
  C  C28  1  0.58990000  0.49030000  0.01590000  1
  C  C29  1  0.60390000  0.88510000  0.85920000  1
  C  C30  1  0.68970000  0.41950000  0.28090000  1
  C  C31  1  0.73080000  0.85180000  0.80630000  1
  C  C32  1  0.74380000  0.79600000  0.28440000  1
  C  C33  1  0.75620000  0.70400000  0.78440000  1
  C  C34  1  0.76920000  0.64820000  0.30630000  1
  C  C35  1  0.81030000  0.08050000  0.78090000  1
  C  C36  1  0.89610000  0.61490000  0.35920000  1
  C  C37  1  0.91010000  0.00970000  0.51590000  1
  C  C38  1  0.91410000  0.47490000  0.36830000  1
  C  C39  1  0.94320000  0.57570000  0.58150000  1
  N  N40  1  0.16420000  0.05080000  0.23226000  1
  N  N41  1  0.18820000  0.62210000  0.67081000  1
  N  N42  1  0.31180000  0.87790000  0.17081000  1
  N  N43  1  0.33580000  0.44920000  0.73226000  1
  N  N44  1  0.66420000  0.55080000  0.26774000  1
  N  N45  1  0.68820000  0.12210000  0.82919000  1
  N  N46  1  0.81180000  0.37790000  0.32919000  1
  N  N47  1  0.83580000  0.94920000  0.76774000  1
  O  O48  1  0.04960000  0.29500000  0.42882000  1
  O  O49  1  0.11920000  0.31330000  0.26034000  1
  O  O50  1  0.12500000  0.02360000  0.41019000  1
  O  O51  1  0.14840000  0.11080000  0.68944000  1
  O  O52  1  0.17180000  0.51280000  0.44291000  1
  O  O53  1  0.18770000  0.94320000  0.53575000  1
  O  O54  1  0.31230000  0.55680000  0.03575000  1
  O  O55  1  0.32820000  0.98720000  0.94291000  1
  O  O56  1  0.35160000  0.38920000  0.18944000  1
  O  O57  1  0.37500000  0.47640000  0.91019000  1
  O  O58  1  0.38080000  0.18670000  0.76034000  1
  O  O59  1  0.45040000  0.20500000  0.92882000  1
  O  O60  1  0.54960000  0.79500000  0.07118000  1
  O  O61  1  0.61920000  0.81330000  0.23966000  1
  O  O62  1  0.62500000  0.52360000  0.08981000  1
  O  O63  1  0.64840000  0.61080000  0.81056000  1
  O  O64  1  0.67180000  0.01280000  0.05709000  1
  O  O65  1  0.68770000  0.44320000  0.96425000  1
  O  O66  1  0.81230000  0.05680000  0.46425000  1
  O  O67  1  0.82820000  0.48720000  0.55709000  1
  O  O68  1  0.85160000  0.88920000  0.31056000  1
  O  O69  1  0.87500000  0.97640000  0.58981000  1
  O  O70  1  0.88080000  0.68670000  0.73966000  1
  O  O71  1  0.95040000  0.70500000  0.57118000  1
