# generated using pymatgen
data_Cu3H20C28(NO7)2
_symmetry_space_group_name_H-M   'P 1'
_cell_length_a   10.85510000
_cell_length_b   12.16759627
_cell_length_c   19.44050000
_cell_angle_alpha   91.86867789
_cell_angle_beta   90.00000000
_cell_angle_gamma   116.49155608
_symmetry_Int_Tables_number   1
_chemical_formula_structural   Cu3H20C28(NO7)2
_chemical_formula_sum   'Cu6 H40 C56 N4 O28'
_cell_volume   2296.57531188
_cell_formula_units_Z   2
loop_
 _symmetry_equiv_pos_site_id
 _symmetry_equiv_pos_as_xyz
  1  'x, y, z'
loop_
 _atom_site_type_symbol
 _atom_site_label
 _atom_site_symmetry_multiplicity
 _atom_site_fract_x
 _atom_site_fract_y
 _atom_site_fract_z
 _atom_site_occupancy
  C  C0  1  0.31602000  0.97644000  0.68288000  1
  C  C1  1  0.24294000  0.97348000  0.25377000  1
  C  C2  1  0.17340000  0.93220000  0.85480000  1
  C  C3  1  0.34314000  0.87248000  0.71037000  1
  C  C4  1  0.25951000  0.86542000  0.22035000  1
  C  C5  1  0.07252000  0.84204000  0.46846000  1
  C  C6  1  0.75655000  0.83930000  0.46162000  1
  C  C7  1  0.11151000  0.81762000  0.89513000  1
  C  C8  1  0.22689000  0.81358000  0.76118000  1
  C  C9  1  0.16912000  0.81124000  0.95718000  1
  C  C10  1  0.28109000  0.80458000  0.45470000  1
  C  C11  1  0.30397000  0.77254000  0.52700000  1
  C  C12  1  0.12303000  0.74786000  0.44632000  1
  C  C13  1  0.56367000  0.74154000  0.37525000  1
  C  C14  1  0.62357000  0.73574000  0.43749000  1
  C  C15  1  0.99176000  0.71772000  0.86981000  1
  C  C16  1  0.11149000  0.70498000  0.99440000  1
  C  C17  1  0.17635000  0.69810000  0.06100000  1
  C  C18  1  0.37137000  0.65414000  0.28820000  1
  C  C19  1  0.43714000  0.64588000  0.35451000  1
  C  C20  1  0.18585000  0.64450000  0.53640000  1
  C  C21  1  0.56166000  0.63072000  0.47709000  1
  C  C22  1  0.93301000  0.60982000  0.90686000  1
  C  C23  1  0.99381000  0.60262000  0.96870000  1
  C  C24  1  0.94037000  0.57234000  0.49816000  1
  C  C25  1  0.37154000  0.54528000  0.39622000  1
  C  C26  1  0.43587000  0.53654000  0.45671000  1
  C  C27  1  0.80930000  0.50240000  0.87733000  1
  C  C28  1  0.30690000  0.49760000  0.12267000  1
  C  C29  1  0.89933000  0.46346000  0.54329000  1
  C  C30  1  0.82626000  0.45472000  0.60378000  1
  C  C31  1  0.36803000  0.42766000  0.50184000  1
  C  C32  1  0.39119000  0.39738000  0.03130000  1
  C  C33  1  0.32319000  0.39018000  0.09314000  1
  C  C34  1  0.93094000  0.36928000  0.52291000  1
  C  C35  1  0.54135000  0.35550000  0.46360000  1
  C  C36  1  0.79126000  0.35412000  0.64549000  1
  C  C37  1  0.71723000  0.34586000  0.71180000  1
  C  C38  1  0.47825000  0.30190000  0.93900000  1
  C  C39  1  0.40651000  0.29502000  0.00560000  1
  C  C40  1  0.27404000  0.28228000  0.13019000  1
  C  C41  1  0.88783000  0.26426000  0.56251000  1
  C  C42  1  0.82213000  0.25846000  0.62475000  1
  C  C43  1  0.37517000  0.25214000  0.55368000  1
  C  C44  1  0.53143000  0.22746000  0.47300000  1
  C  C45  1  0.47651000  0.19542000  0.54530000  1
  C  C46  1  0.35788000  0.18876000  0.04282000  1
  C  C47  1  0.41331000  0.18642000  0.23882000  1
  C  C48  1  0.29389000  0.18238000  0.10487000  1
  C  C49  1  0.91725000  0.16070000  0.53838000  1
  C  C50  1  0.23048000  0.15796000  0.53154000  1
  C  C51  1  0.39409000  0.13458000  0.77965000  1
  C  C52  1  0.47066000  0.12752000  0.28963000  1
  C  C53  1  0.24120000  0.06780000  0.14520000  1
  C  C54  1  0.26946000  0.02652000  0.74623000  1
  C  C55  1  0.33958000  0.02356000  0.31712000  1
  Cu  Cu56  1  0.97202000  0.96118000  0.56228000  1
  Cu  Cu57  1  0.40212000  0.75504000  0.15022000  1
  Cu  Cu58  1  0.15652000  0.60352000  0.19603000  1
  Cu  Cu59  1  0.55300000  0.39648000  0.80397000  1
  Cu  Cu60  1  0.64708000  0.24496000  0.84978000  1
  Cu  Cu61  1  0.01084000  0.03882000  0.43772000  1
  H  H62  1  0.35900000  0.96000000  0.33600000  1
  H  H63  1  0.14710000  0.94820000  0.26680000  1
  H  H64  1  0.24450000  0.94540000  0.64740000  1
  H  H65  1  0.43250000  0.90440000  0.73320000  1
  H  H66  1  0.32260000  0.89300000  0.45010000  1
  H  H67  1  0.24730000  0.87880000  0.97420000  1
  H  H68  1  0.30010000  0.83120000  0.56080000  1
  H  H69  1  0.33800000  0.81440000  0.67370000  1
  H  H70  1  0.60770000  0.80880000  0.34770000  1
  H  H71  1  0.25170000  0.77240000  0.79660000  1
  H  H72  1  0.39240000  0.77140000  0.53110000  1
  H  H73  1  0.31990000  0.76940000  0.42070000  1
  H  H74  1  0.14290000  0.75500000  0.73800000  1
  H  H75  1  0.95140000  0.72300000  0.82860000  1
  H  H76  1  0.09480000  0.71880000  0.39860000  1
  H  H77  1  0.15850000  0.63260000  0.58420000  1
  H  H78  1  0.60520000  0.62460000  0.51690000  1
  H  H79  1  0.21140000  0.58080000  0.52120000  1
  H  H80  1  0.95650000  0.53040000  0.99280000  1
  H  H81  1  0.80100000  0.51620000  0.61630000  1
  H  H82  1  0.28480000  0.48380000  0.38370000  1
  H  H83  1  0.42610000  0.46960000  0.00720000  1
  H  H84  1  0.63060000  0.41920000  0.47880000  1
  H  H85  1  0.98060000  0.37540000  0.48310000  1
  H  H86  1  0.52590000  0.36740000  0.41580000  1
  H  H87  1  0.37600000  0.28120000  0.60140000  1
  H  H88  1  0.22840000  0.27700000  0.17140000  1
  H  H89  1  0.38790000  0.24500000  0.26200000  1
  H  H90  1  0.55050000  0.23060000  0.57930000  1
  H  H91  1  0.62100000  0.22860000  0.46890000  1
  H  H92  1  0.47930000  0.22760000  0.20340000  1
  H  H93  1  0.79890000  0.19120000  0.65230000  1
  H  H94  1  0.52360000  0.18560000  0.32630000  1
  H  H95  1  0.46890000  0.16880000  0.43920000  1
  H  H96  1  0.36850000  0.12120000  0.02580000  1
  H  H97  1  0.42960000  0.10700000  0.54990000  1
  H  H98  1  0.52810000  0.09560000  0.26680000  1
  H  H99  1  0.29910000  0.05460000  0.35260000  1
  H  H100  1  0.19890000  0.05180000  0.73320000  1
  H  H101  1  0.39900000  0.04000000  0.66400000  1
  N  N102  1  0.21144000  0.92068000  0.79034000  1
  N  N103  1  0.07456000  0.64452000  0.49227000  1
  N  N104  1  0.43004000  0.35548000  0.50773000  1
  N  N105  1  0.29076000  0.07932000  0.20966000  1
  O  O106  1  0.15450000  0.96800000  0.12033000  1
  O  O107  1  0.81947000  0.92154000  0.41848000  1
  O  O108  1  0.05931000  0.90322000  0.41992000  1
  O  O109  1  0.37212000  0.88824000  0.19231000  1
  O  O110  1  0.05353000  0.85446000  0.53137000  1
  O  O111  1  0.79558000  0.83816000  0.52252000  1
  O  O112  1  0.30341000  0.76762000  0.06898000  1
  O  O113  1  0.15864000  0.75988000  0.22799000  1
  O  O114  1  0.45178000  0.71796000  0.24281000  1
  O  O115  1  0.09870000  0.62180000  0.10366000  1
  O  O116  1  0.39702000  0.60304000  0.10890000  1
  O  O117  1  0.24185000  0.59690000  0.28360000  1
  O  O118  1  0.85311000  0.59202000  0.46747000  1
  O  O119  1  0.72930000  0.52700000  0.84059000  1
  O  O120  1  0.20230000  0.47300000  0.15941000  1
  O  O121  1  0.26109000  0.40798000  0.53253000  1
  O  O122  1  0.64495000  0.40310000  0.71640000  1
  O  O123  1  0.79398000  0.39696000  0.89110000  1
  O  O124  1  0.47690000  0.37820000  0.89634000  1
  O  O125  1  0.73382000  0.28204000  0.75719000  1
  O  O126  1  0.39876000  0.24012000  0.77201000  1
  O  O127  1  0.53579000  0.23238000  0.93102000  1
  O  O128  1  0.95742000  0.16184000  0.47748000  1
  O  O129  1  0.19907000  0.14554000  0.46863000  1
  O  O130  1  0.48388000  0.11176000  0.80769000  1
  O  O131  1  0.15609000  0.09678000  0.58008000  1
  O  O132  1  0.89793000  0.07846000  0.58152000  1
  O  O133  1  0.18650000  0.03200000  0.87967000  1
