# generated using pymatgen
data_CaH4C10N3O4
_symmetry_space_group_name_H-M   'P 1'
_cell_length_a   14.25430000
_cell_length_b   15.44480000
_cell_length_c   15.44480000
_cell_angle_alpha   102.44520000
_cell_angle_beta   90.00000000
_cell_angle_gamma   90.00000000
_symmetry_Int_Tables_number   1
_chemical_formula_structural   CaH4C10N3O4
_chemical_formula_sum   'Ca8 H32 C80 N24 O32'
_cell_volume   3320.34999049
_cell_formula_units_Z   8
loop_
 _symmetry_equiv_pos_site_id
 _symmetry_equiv_pos_as_xyz
  1  'x, y, z'
loop_
 _atom_site_type_symbol
 _atom_site_label
 _atom_site_symmetry_multiplicity
 _atom_site_fract_x
 _atom_site_fract_y
 _atom_site_fract_z
 _atom_site_occupancy
  Ca  Ca0  1  0.88918000  0.55958000  0.96118000  1
  Ca  Ca1  1  0.88918000  0.03882000  0.44042000  1
  Ca  Ca2  1  0.61082000  0.53882000  0.94042000  1
  Ca  Ca3  1  0.61082000  0.05958000  0.46118000  1
  Ca  Ca4  1  0.38918000  0.94042000  0.53882000  1
  Ca  Ca5  1  0.38918000  0.46118000  0.05958000  1
  Ca  Ca6  1  0.11082000  0.96118000  0.55958000  1
  Ca  Ca7  1  0.11082000  0.44042000  0.03882000  1
  H  H8  1  0.89060000  0.78810000  0.69870000  1
  H  H9  1  0.89060000  0.30130000  0.21190000  1
  H  H10  1  0.88660000  0.70390000  0.79790000  1
  H  H11  1  0.88660000  0.20210000  0.29610000  1
  H  H12  1  0.86980000  0.28950000  0.71050000  1
  H  H13  1  0.82620000  0.80740000  0.39980000  1
  H  H14  1  0.82620000  0.60020000  0.19260000  1
  H  H15  1  0.75000000  0.93930000  0.56070000  1
  H  H16  1  0.75000000  0.43930000  0.06070000  1
  H  H17  1  0.67380000  0.30740000  0.89980000  1
  H  H18  1  0.67380000  0.10020000  0.69260000  1
  H  H19  1  0.63020000  0.78950000  0.21050000  1
  H  H20  1  0.61340000  0.70210000  0.79610000  1
  H  H21  1  0.61340000  0.20390000  0.29790000  1
  H  H22  1  0.60940000  0.80130000  0.71190000  1
  H  H23  1  0.60940000  0.28810000  0.19870000  1
  H  H24  1  0.39060000  0.71190000  0.80130000  1
  H  H25  1  0.39060000  0.19870000  0.28810000  1
  H  H26  1  0.38660000  0.79610000  0.70210000  1
  H  H27  1  0.38660000  0.29790000  0.20390000  1
  H  H28  1  0.36980000  0.21050000  0.78950000  1
  H  H29  1  0.32620000  0.89980000  0.30740000  1
  H  H30  1  0.32620000  0.69260000  0.10020000  1
  H  H31  1  0.25000000  0.56070000  0.93930000  1
  H  H32  1  0.25000000  0.06070000  0.43930000  1
  H  H33  1  0.17380000  0.39980000  0.80740000  1
  H  H34  1  0.17380000  0.19260000  0.60020000  1
  H  H35  1  0.13020000  0.71050000  0.28950000  1
  H  H36  1  0.11340000  0.79790000  0.70390000  1
  H  H37  1  0.11340000  0.29610000  0.20210000  1
  H  H38  1  0.10940000  0.69870000  0.78810000  1
  H  H39  1  0.10940000  0.21190000  0.30130000  1
  C  C40  1  0.94610000  0.68330000  0.42370000  1
  C  C41  1  0.94610000  0.57630000  0.31670000  1
  C  C42  1  0.92690000  0.89739000  0.59257000  1
  C  C43  1  0.92690000  0.40743000  0.10261000  1
  C  C44  1  0.83500000  0.69531000  0.30469000  1
  C  C45  1  0.83452000  0.86865000  0.62467000  1
  C  C46  1  0.83452000  0.37533000  0.13135000  1
  C  C47  1  0.83442000  0.81039000  0.68205000  1
  C  C48  1  0.83442000  0.31795000  0.18961000  1
  C  C49  1  0.82440000  0.69206000  0.80942000  1
  C  C50  1  0.82440000  0.19058000  0.30794000  1
  C  C51  1  0.81580000  0.26776000  0.73224000  1
  C  C52  1  0.81163000  0.40240000  0.85606000  1
  C  C53  1  0.81163000  0.14394000  0.59760000  1
  C  C54  1  0.79960000  0.77710000  0.34698000  1
  C  C55  1  0.79960000  0.65302000  0.22290000  1
  C  C56  1  0.77460000  0.31329000  0.81097000  1
  C  C57  1  0.77460000  0.18903000  0.68671000  1
  C  C58  1  0.75000000  0.90065000  0.59935000  1
  C  C59  1  0.75000000  0.78595000  0.71405000  1
  C  C60  1  0.75000000  0.40065000  0.09935000  1
  C  C61  1  0.75000000  0.28595000  0.21405000  1
  C  C62  1  0.72540000  0.81329000  0.31097000  1
  C  C63  1  0.72540000  0.68903000  0.18671000  1
  C  C64  1  0.70040000  0.27710000  0.84698000  1
  C  C65  1  0.70040000  0.15302000  0.72290000  1
  C  C66  1  0.68837000  0.90240000  0.35606000  1
  C  C67  1  0.68837000  0.64394000  0.09760000  1
  C  C68  1  0.68420000  0.76776000  0.23224000  1
  C  C69  1  0.67560000  0.69058000  0.80794000  1
  C  C70  1  0.67560000  0.19206000  0.30942000  1
  C  C71  1  0.66558000  0.81795000  0.68961000  1
  C  C72  1  0.66558000  0.31039000  0.18205000  1
  C  C73  1  0.66548000  0.87533000  0.63135000  1
  C  C74  1  0.66548000  0.36865000  0.12467000  1
  C  C75  1  0.66500000  0.19531000  0.80469000  1
  C  C76  1  0.57310000  0.90743000  0.60261000  1
  C  C77  1  0.57310000  0.39739000  0.09257000  1
  C  C78  1  0.55390000  0.18330000  0.92370000  1
  C  C79  1  0.55390000  0.07630000  0.81670000  1
  C  C80  1  0.44610000  0.92370000  0.18330000  1
  C  C81  1  0.44610000  0.81670000  0.07630000  1
  C  C82  1  0.42690000  0.60261000  0.90743000  1
  C  C83  1  0.42690000  0.09257000  0.39739000  1
  C  C84  1  0.33500000  0.80469000  0.19531000  1
  C  C85  1  0.33452000  0.63135000  0.87533000  1
  C  C86  1  0.33452000  0.12467000  0.36865000  1
  C  C87  1  0.33442000  0.68961000  0.81795000  1
  C  C88  1  0.33442000  0.18205000  0.31039000  1
  C  C89  1  0.32440000  0.80794000  0.69058000  1
  C  C90  1  0.32440000  0.30942000  0.19206000  1
  C  C91  1  0.31580000  0.23224000  0.76776000  1
  C  C92  1  0.31163000  0.35606000  0.90240000  1
  C  C93  1  0.31163000  0.09760000  0.64394000  1
  C  C94  1  0.29960000  0.84698000  0.27710000  1
  C  C95  1  0.29960000  0.72290000  0.15302000  1
  C  C96  1  0.27460000  0.31097000  0.81329000  1
  C  C97  1  0.27460000  0.18671000  0.68903000  1
  C  C98  1  0.25000000  0.71405000  0.78595000  1
  C  C99  1  0.25000000  0.59935000  0.90065000  1
  C  C100  1  0.25000000  0.21405000  0.28595000  1
  C  C101  1  0.25000000  0.09935000  0.40065000  1
  C  C102  1  0.22540000  0.81097000  0.31329000  1
  C  C103  1  0.22540000  0.68671000  0.18903000  1
  C  C104  1  0.20040000  0.34698000  0.77710000  1
  C  C105  1  0.20040000  0.22290000  0.65302000  1
  C  C106  1  0.18837000  0.85606000  0.40240000  1
  C  C107  1  0.18837000  0.59760000  0.14394000  1
  C  C108  1  0.18420000  0.73224000  0.26776000  1
  C  C109  1  0.17560000  0.80942000  0.69206000  1
  C  C110  1  0.17560000  0.30794000  0.19058000  1
  C  C111  1  0.16558000  0.68205000  0.81039000  1
  C  C112  1  0.16558000  0.18961000  0.31795000  1
  C  C113  1  0.16548000  0.62467000  0.86865000  1
  C  C114  1  0.16548000  0.13135000  0.37533000  1
  C  C115  1  0.16500000  0.30469000  0.69531000  1
  C  C116  1  0.07310000  0.59257000  0.89739000  1
  C  C117  1  0.07310000  0.10261000  0.40743000  1
  C  C118  1  0.05390000  0.42370000  0.68330000  1
  C  C119  1  0.05390000  0.31670000  0.57630000  1
  N  N120  1  0.99630000  0.44400000  0.62320000  1
  N  N121  1  0.99630000  0.37680000  0.55600000  1
  N  N122  1  0.90690000  0.65418000  0.34582000  1
  N  N123  1  0.79824000  0.64104000  0.86150000  1
  N  N124  1  0.79824000  0.13850000  0.35896000  1
  N  N125  1  0.75000000  0.72595000  0.77405000  1
  N  N126  1  0.75000000  0.22595000  0.27405000  1
  N  N127  1  0.70176000  0.63850000  0.85896000  1
  N  N128  1  0.70176000  0.14104000  0.36150000  1
  N  N129  1  0.59310000  0.15418000  0.84582000  1
  N  N130  1  0.50370000  0.94400000  0.12320000  1
  N  N131  1  0.50370000  0.87680000  0.05600000  1
  N  N132  1  0.49630000  0.12320000  0.94400000  1
  N  N133  1  0.49630000  0.05600000  0.87680000  1
  N  N134  1  0.40690000  0.84582000  0.15418000  1
  N  N135  1  0.29824000  0.85896000  0.63850000  1
  N  N136  1  0.29824000  0.36150000  0.14104000  1
  N  N137  1  0.25000000  0.77405000  0.72595000  1
  N  N138  1  0.25000000  0.27405000  0.22595000  1
  N  N139  1  0.20176000  0.86150000  0.64104000  1
  N  N140  1  0.20176000  0.35896000  0.13850000  1
  N  N141  1  0.09310000  0.34582000  0.65418000  1
  N  N142  1  0.00370000  0.62320000  0.44400000  1
  N  N143  1  0.00370000  0.55600000  0.37680000  1
  O  O144  1  0.99979000  0.62354000  0.87350000  1
  O  O145  1  0.99979000  0.12650000  0.37646000  1
  O  O146  1  0.92634000  0.94405000  0.53493000  1
  O  O147  1  0.92634000  0.46507000  0.05595000  1
  O  O148  1  0.89753000  0.41970000  0.84924000  1
  O  O149  1  0.89753000  0.15076000  0.58030000  1
  O  O150  1  0.75457000  0.45720000  0.89998000  1
  O  O151  1  0.75457000  0.10002000  0.54280000  1
  O  O152  1  0.74543000  0.95720000  0.39998000  1
  O  O153  1  0.74543000  0.60002000  0.04280000  1
  O  O154  1  0.60247000  0.91970000  0.34924000  1
  O  O155  1  0.60247000  0.65076000  0.08030000  1
  O  O156  1  0.57366000  0.96507000  0.55595000  1
  O  O157  1  0.57366000  0.44405000  0.03493000  1
  O  O158  1  0.50021000  0.62650000  0.87646000  1
  O  O159  1  0.50021000  0.12354000  0.37350000  1
  O  O160  1  0.49979000  0.87646000  0.62650000  1
  O  O161  1  0.49979000  0.37350000  0.12354000  1
  O  O162  1  0.42634000  0.55595000  0.96507000  1
  O  O163  1  0.42634000  0.03493000  0.44405000  1
  O  O164  1  0.39753000  0.34924000  0.91970000  1
  O  O165  1  0.39753000  0.08030000  0.65076000  1
  O  O166  1  0.25457000  0.39998000  0.95720000  1
  O  O167  1  0.25457000  0.04280000  0.60002000  1
  O  O168  1  0.24543000  0.89998000  0.45720000  1
  O  O169  1  0.24543000  0.54280000  0.10002000  1
  O  O170  1  0.10247000  0.84924000  0.41970000  1
  O  O171  1  0.10247000  0.58030000  0.15076000  1
  O  O172  1  0.07366000  0.53493000  0.94405000  1
  O  O173  1  0.07366000  0.05595000  0.46507000  1
  O  O174  1  0.00021000  0.87350000  0.62354000  1
  O  O175  1  0.00021000  0.37646000  0.12650000  1
