# generated using pymatgen
data_SmH7(C5O2)3
_symmetry_space_group_name_H-M   'P 1'
_cell_length_a   14.30900000
_cell_length_b   14.30900000
_cell_length_c   33.51382163
_cell_angle_alpha   102.32631389
_cell_angle_beta   102.32631389
_cell_angle_gamma   90.00000000
_symmetry_Int_Tables_number   1
_chemical_formula_structural   SmH7(C5O2)3
_chemical_formula_sum   'Sm12 H84 C180 O72'
_cell_volume   6541.68201795
_cell_formula_units_Z   12
loop_
 _symmetry_equiv_pos_site_id
 _symmetry_equiv_pos_as_xyz
  1  'x, y, z'
loop_
 _atom_site_type_symbol
 _atom_site_label
 _atom_site_symmetry_multiplicity
 _atom_site_fract_x
 _atom_site_fract_y
 _atom_site_fract_z
 _atom_site_occupancy
  C  C0  1  0.05810000  0.05810000  0.11620000  1
  C  C1  1  0.94190000  0.94190000  0.88380000  1
  C  C2  1  0.19190000  0.69190000  0.38380000  1
  C  C3  1  0.30810000  0.80810000  0.61620000  1
  C  C4  1  0.43886000  0.57276000  0.84652000  1
  C  C5  1  0.84234000  0.17724000  0.65348000  1
  C  C6  1  0.81195000  0.40955000  0.58190000  1
  C  C7  1  0.48005000  0.34045000  0.91810000  1
  C  C8  1  0.48138000  0.55218000  0.88476000  1
  C  C9  1  0.84662000  0.19782000  0.61524000  1
  C  C10  1  0.89524000  0.52824000  0.65828000  1
  C  C11  1  0.48696000  0.22176000  0.84172000  1
  C  C12  1  0.49235000  0.02065000  0.84370000  1
  C  C13  1  0.89865000  0.72935000  0.65630000  1
  C  C14  1  0.48754000  0.15004000  0.80288000  1
  C  C15  1  0.93466000  0.59996000  0.69712000  1
  C  C16  1  0.18630000  0.26160000  0.19360000  1
  C  C17  1  0.24270000  0.48840000  0.30640000  1
  C  C18  1  0.49590000  0.05490000  0.80420000  1
  C  C19  1  0.94170000  0.69510000  0.69580000  1
  C  C20  1  0.61116000  0.71116000  0.02692000  1
  C  C21  1  0.83424000  0.03884000  0.47308000  1
  C  C22  1  0.27065000  0.24235000  0.34370000  1
  C  C23  1  0.17695000  0.50765000  0.15630000  1
  C  C24  1  0.23644000  0.25324000  0.26868000  1
  C  C25  1  0.21776000  0.49676000  0.23132000  1
  C  C26  1  0.85684000  0.99004000  0.50588000  1
  C  C27  1  0.60096000  0.75996000  0.99412000  1
  C  C28  1  0.97228000  0.57548000  0.73576000  1
  C  C29  1  0.48652000  0.17452000  0.76424000  1
  C  C30  1  0.89824000  0.45954000  0.58548000  1
  C  C31  1  0.56276000  0.29046000  0.91452000  1
  C  C32  1  0.80218000  0.23138000  0.38476000  1
  C  C33  1  0.66742000  0.51862000  0.11524000  1
  C  C34  1  0.65955000  0.56195000  0.08190000  1
  C  C35  1  0.82765000  0.18805000  0.41810000  1
  C  C36  1  0.50324000  0.98644000  0.76868000  1
  C  C37  1  0.98456000  0.76356000  0.73132000  1
  C  C38  1  0.93928000  0.52038000  0.62496000  1
  C  C39  1  0.56432000  0.22962000  0.87504000  1
  C  C40  1  0.49212000  0.10792000  0.73004000  1
  C  C41  1  0.01208000  0.64208000  0.76996000  1
  C  C42  1  0.15879000  0.72629000  0.05098000  1
  C  C43  1  0.35781000  0.02371000  0.44902000  1
  C  C44  1  0.50055000  0.01245000  0.73130000  1
  C  C45  1  0.01925000  0.73755000  0.76870000  1
  C  C46  1  0.36586000  0.40196000  0.44112000  1
  C  C47  1  0.17474000  0.34804000  0.05888000  1
  C  C48  1  0.26245000  0.25055000  0.23130000  1
  C  C49  1  0.28115000  0.49945000  0.26870000  1
  C  C50  1  0.82276000  0.18886000  0.34652000  1
  C  C51  1  0.72624000  0.56114000  0.15348000  1
  C  C52  1  0.30490000  0.24590000  0.30420000  1
  C  C53  1  0.25070000  0.50410000  0.19580000  1
  C  C54  1  0.51160000  0.93630000  0.69360000  1
  C  C55  1  0.06800000  0.81370000  0.80640000  1
  C  C56  1  0.70954000  0.64824000  0.08548000  1
  C  C57  1  0.87406000  0.10176000  0.41452000  1
  C  C58  1  0.94528000  0.45118000  0.54916000  1
  C  C59  1  0.64612000  0.29882000  0.95084000  1
  C  C60  1  0.70118000  0.69528000  0.04916000  1
  C  C61  1  0.90202000  0.05472000  0.45084000  1
  C  C62  1  0.65196000  0.11586000  0.94112000  1
  C  C63  1  0.96084000  0.63414000  0.55888000  1
  C  C64  1  0.94538000  0.95888000  0.51576000  1
  C  C65  1  0.67962000  0.79112000  0.98424000  1
  C  C66  1  0.96116000  0.36116000  0.52692000  1
  C  C67  1  0.68424000  0.38884000  0.97308000  1
  C  C68  1  0.77824000  0.64524000  0.15828000  1
  C  C69  1  0.86996000  0.10476000  0.34172000  1
  C  C70  1  0.97629000  0.90879000  0.55098000  1
  C  C71  1  0.67531000  0.84121000  0.94902000  1
  C  C72  1  0.20888000  0.69538000  0.01576000  1
  C  C73  1  0.44312000  0.05462000  0.48424000  1
  C  C74  1  0.82548000  0.72228000  0.23576000  1
  C  C75  1  0.83972000  0.02772000  0.26424000  1
  C  C76  1  0.77038000  0.68928000  0.12496000  1
  C  C77  1  0.89542000  0.06072000  0.37504000  1
  C  C78  1  0.68965000  0.21815000  0.96150000  1
  C  C79  1  0.97815000  0.53185000  0.53850000  1
  C  C80  1  0.47917000  0.98727000  0.50674000  1
  C  C81  1  0.22243000  0.76273000  0.99326000  1
  C  C82  1  0.23727000  0.22917000  0.00674000  1
  C  C83  1  0.48053000  0.52083000  0.49326000  1
  C  C84  1  0.24004000  0.60684000  0.00588000  1
  C  C85  1  0.48416000  0.14316000  0.49412000  1
  C  C86  1  0.46815000  0.43965000  0.46150000  1
  C  C87  1  0.25665000  0.31035000  0.03850000  1
  C  C88  1  0.35792000  0.24212000  0.23004000  1
  C  C89  1  0.37788000  0.50788000  0.26996000  1
  C  C90  1  0.40004000  0.23754000  0.30288000  1
  C  C91  1  0.34716000  0.51246000  0.19712000  1
  C  C92  1  0.84996000  0.68466000  0.19712000  1
  C  C93  1  0.90284000  0.06534000  0.30288000  1
  C  C94  1  0.89208000  0.76208000  0.26996000  1
  C  C95  1  0.87212000  0.98792000  0.23004000  1
  C  C96  1  0.78185000  0.72815000  0.03850000  1
  C  C97  1  0.99335000  0.02185000  0.46150000  1
  C  C98  1  0.00996000  0.35096000  0.49412000  1
  C  C99  1  0.76584000  0.39904000  0.00588000  1
  C  C100  1  0.01273000  0.97243000  0.49326000  1
  C  C101  1  0.76947000  0.77757000  0.00674000  1
  C  C102  1  0.77083000  0.23053000  0.99326000  1
  C  C103  1  0.02757000  0.51947000  0.50674000  1
  C  C104  1  0.56035000  0.00665000  0.53850000  1
  C  C105  1  0.27185000  0.74335000  0.96150000  1
  C  C106  1  0.47962000  0.31432000  0.37504000  1
  C  C107  1  0.35458000  0.43568000  0.12496000  1
  C  C108  1  0.42452000  0.23652000  0.26424000  1
  C  C109  1  0.41028000  0.51348000  0.23576000  1
  C  C110  1  0.04112000  0.42962000  0.48424000  1
  C  C111  1  0.80688000  0.32038000  0.01576000  1
  C  C112  1  0.27371000  0.10781000  0.94902000  1
  C  C113  1  0.57469000  0.64219000  0.55098000  1
  C  C114  1  0.47176000  0.23696000  0.34172000  1
  C  C115  1  0.38004000  0.51304000  0.15828000  1
  C  C116  1  0.28884000  0.58424000  0.97308000  1
  C  C117  1  0.56576000  0.16576000  0.52692000  1
  C  C118  1  0.30462000  0.19312000  0.98424000  1
  C  C119  1  0.57038000  0.55688000  0.51576000  1
  C  C120  1  0.59804000  0.92474000  0.55888000  1
  C  C121  1  0.28916000  0.82526000  0.94112000  1
  C  C122  1  0.54882000  0.39612000  0.45084000  1
  C  C123  1  0.34798000  0.35388000  0.04916000  1
  C  C124  1  0.30472000  0.65202000  0.95084000  1
  C  C125  1  0.60388000  0.09798000  0.54916000  1
  C  C126  1  0.54046000  0.31276000  0.41452000  1
  C  C127  1  0.37594000  0.43724000  0.08548000  1
  C  C128  1  0.73840000  0.99270000  0.80640000  1
  C  C129  1  0.18200000  0.75730000  0.69360000  1
  C  C130  1  0.94510000  0.69170000  0.19580000  1
  C  C131  1  0.99930000  0.05830000  0.30420000  1
  C  C132  1  0.42724000  0.59234000  0.15348000  1
  C  C133  1  0.52376000  0.15766000  0.34652000  1
  C  C134  1  0.98755000  0.76925000  0.26870000  1
  C  C135  1  0.96885000  0.98075000  0.23130000  1
  C  C136  1  0.88414000  0.71084000  0.05888000  1
  C  C137  1  0.07526000  0.03916000  0.44112000  1
  C  C138  1  0.74945000  0.03115000  0.76870000  1
  C  C139  1  0.23075000  0.71885000  0.73130000  1
  C  C140  1  0.09121000  0.42531000  0.44902000  1
  C  C141  1  0.89219000  0.32469000  0.05098000  1
  C  C142  1  0.75788000  0.12788000  0.76996000  1
  C  C143  1  0.23792000  0.62212000  0.73004000  1
  C  C144  1  0.31072000  0.64542000  0.87504000  1
  C  C145  1  0.68568000  0.10458000  0.62496000  1
  C  C146  1  0.74676000  0.96776000  0.73132000  1
  C  C147  1  0.26544000  0.78224000  0.76868000  1
  C  C148  1  0.59045000  0.23005000  0.41810000  1
  C  C149  1  0.42235000  0.51995000  0.08190000  1
  C  C150  1  0.44782000  0.59662000  0.11524000  1
  C  C151  1  0.58258000  0.15338000  0.38476000  1
  C  C152  1  0.35176000  0.62406000  0.91452000  1
  C  C153  1  0.68724000  0.12594000  0.58548000  1
  C  C154  1  0.27772000  0.58972000  0.76424000  1
  C  C155  1  0.76348000  0.16028000  0.73576000  1
  C  C156  1  0.39316000  0.23416000  0.99412000  1
  C  C157  1  0.64904000  0.51584000  0.50588000  1
  C  C158  1  0.01356000  0.73456000  0.23132000  1
  C  C159  1  0.03224000  0.01544000  0.26868000  1
  C  C160  1  0.97935000  0.64865000  0.15630000  1
  C  C161  1  0.07305000  0.10135000  0.34370000  1
  C  C162  1  0.63884000  0.43424000  0.47308000  1
  C  C163  1  0.41576000  0.31576000  0.02692000  1
  C  C164  1  0.75410000  0.00070000  0.69580000  1
  C  C165  1  0.30830000  0.74930000  0.80420000  1
  C  C166  1  0.06370000  0.81800000  0.30640000  1
  C  C167  1  0.00730000  0.93200000  0.19360000  1
  C  C168  1  0.76246000  0.09716000  0.69712000  1
  C  C169  1  0.31534000  0.65284000  0.80288000  1
  C  C170  1  0.75765000  0.92695000  0.65630000  1
  C  C171  1  0.35135000  0.82305000  0.84370000  1
  C  C172  1  0.35476000  0.61996000  0.84172000  1
  C  C173  1  0.76304000  0.13004000  0.65828000  1
  C  C174  1  0.76862000  0.41742000  0.61524000  1
  C  C175  1  0.40338000  0.33258000  0.88476000  1
  C  C176  1  0.43805000  0.57765000  0.91810000  1
  C  C177  1  0.76995000  0.17235000  0.58190000  1
  C  C178  1  0.81114000  0.47624000  0.65348000  1
  C  C179  1  0.40766000  0.27376000  0.84652000  1
  H  H180  1  0.07270000  0.07270000  0.14540000  1
  H  H181  1  0.92730000  0.92730000  0.85460000  1
  H  H182  1  0.17730000  0.67730000  0.35460000  1
  H  H183  1  0.32270000  0.82270000  0.64540000  1
  H  H184  1  0.78320000  0.37010000  0.55640000  1
  H  H185  1  0.47680000  0.37990000  0.94360000  1
  H  H186  1  0.17270000  0.26020000  0.27040000  1
  H  H187  1  0.15230000  0.48980000  0.22960000  1
  H  H188  1  0.55680000  0.68910000  0.03380000  1
  H  H189  1  0.77300000  0.06090000  0.46620000  1
  H  H190  1  0.81100000  0.97950000  0.52060000  1
  H  H191  1  0.54040000  0.77050000  0.97940000  1
  H  H192  1  0.46760000  0.55450000  0.82380000  1
  H  H193  1  0.89380000  0.19550000  0.67620000  1
  H  H194  1  0.77140000  0.28880000  0.38780000  1
  H  H195  1  0.63360000  0.46120000  0.11220000  1
  H  H196  1  0.62010000  0.53320000  0.05640000  1
  H  H197  1  0.81370000  0.21680000  0.44360000  1
  H  H198  1  0.53880000  0.52140000  0.88780000  1
  H  H199  1  0.90100000  0.22860000  0.61220000  1
  H  H200  1  0.96960000  0.51160000  0.73760000  1
  H  H201  1  0.48200000  0.23840000  0.76240000  1
  H  H202  1  0.51020000  0.92270000  0.77040000  1
  H  H203  1  0.98980000  0.82730000  0.72960000  1
  H  H204  1  0.03540000  0.62340000  0.79500000  1
  H  H205  1  0.49040000  0.12660000  0.70500000  1
  H  H206  1  0.80450000  0.21760000  0.32380000  1
  H  H207  1  0.73070000  0.53240000  0.17620000  1
  H  H208  1  0.76160000  0.71960000  0.23760000  1
  H  H209  1  0.77400000  0.03040000  0.26240000  1
  H  H210  1  0.93910000  0.30680000  0.53380000  1
  H  H211  1  0.65530000  0.44320000  0.96620000  1
  H  H212  1  0.17720000  0.19790000  0.00040000  1
  H  H213  1  0.42680000  0.55210000  0.49960000  1
  H  H214  1  0.99640000  0.55520000  0.62840000  1
  H  H215  1  0.61800000  0.19480000  0.87160000  1
  H  H216  1  0.44790000  0.92720000  0.50040000  1
  H  H217  1  0.19750000  0.82280000  0.99960000  1
  H  H218  1  0.22950000  0.56100000  0.02060000  1
  H  H219  1  0.45890000  0.18900000  0.47940000  1
  H  H220  1  0.87340000  0.78540000  0.29500000  1
  H  H221  1  0.82840000  0.96460000  0.20500000  1
  H  H222  1  0.80520000  0.74640000  0.12840000  1
  H  H223  1  0.92680000  0.00360000  0.37160000  1
  H  H224  1  0.44480000  0.36800000  0.37160000  1
  H  H225  1  0.32320000  0.38200000  0.12840000  1
  H  H226  1  0.37660000  0.24040000  0.20500000  1
  H  H227  1  0.42160000  0.50960000  0.29500000  1
  H  H228  1  0.02050000  0.29040000  0.47940000  1
  H  H229  1  0.79110000  0.45960000  0.02060000  1
  H  H230  1  0.80210000  0.17680000  0.99960000  1
  H  H231  1  0.05250000  0.57320000  0.50040000  1
  H  H232  1  0.25360000  0.67680000  0.87160000  1
  H  H233  1  0.63200000  0.07320000  0.62840000  1
  H  H234  1  0.07280000  0.94750000  0.49960000  1
  H  H235  1  0.82320000  0.80250000  0.00040000  1
  H  H236  1  0.31090000  0.52300000  0.96620000  1
  H  H237  1  0.59470000  0.22700000  0.53380000  1
  H  H238  1  0.48840000  0.23200000  0.26240000  1
  H  H239  1  0.47600000  0.51800000  0.23760000  1
  H  H240  1  0.44550000  0.64380000  0.17620000  1
  H  H241  1  0.51930000  0.10620000  0.32380000  1
  H  H242  1  0.21460000  0.57840000  0.70500000  1
  H  H243  1  0.75960000  0.17160000  0.79500000  1
  H  H244  1  0.73980000  0.90230000  0.72960000  1
  H  H245  1  0.26020000  0.84770000  0.77040000  1
  H  H246  1  0.28040000  0.52400000  0.76240000  1
  H  H247  1  0.76800000  0.22600000  0.73760000  1
  H  H248  1  0.71120000  0.38360000  0.61220000  1
  H  H249  1  0.34900000  0.36640000  0.88780000  1
  H  H250  1  0.62990000  0.22680000  0.44360000  1
  H  H251  1  0.43630000  0.52320000  0.05640000  1
  H  H252  1  0.47860000  0.65100000  0.11220000  1
  H  H253  1  0.61640000  0.09900000  0.38780000  1
  H  H254  1  0.78240000  0.48070000  0.67620000  1
  H  H255  1  0.35620000  0.26930000  0.82380000  1
  H  H256  1  0.43900000  0.20890000  0.97940000  1
  H  H257  1  0.70960000  0.54110000  0.52060000  1
  H  H258  1  0.69320000  0.40530000  0.46620000  1
  H  H259  1  0.47700000  0.34470000  0.03380000  1
  H  H260  1  0.07730000  0.73980000  0.22960000  1
  H  H261  1  0.09770000  0.01020000  0.27040000  1
  H  H262  1  0.46680000  0.56370000  0.94360000  1
  H  H263  1  0.77320000  0.18630000  0.55640000  1
  O  O264  1  0.82466000  0.93346000  0.63912000  1
  O  O265  1  0.43554000  0.81654000  0.86088000  1
  O  O266  1  0.10395000  0.27765000  0.19730000  1
  O  O267  1  0.15665000  0.47235000  0.30270000  1
  O  O268  1  0.05776000  0.12256000  0.09832000  1
  O  O269  1  0.20944000  0.62744000  0.40168000  1
  O  O270  1  0.21907000  0.30767000  0.35754000  1
  O  O271  1  0.11153000  0.44233000  0.14246000  1
  O  O272  1  0.37256000  0.80776000  0.59832000  1
  O  O273  1  0.02424000  0.94224000  0.90168000  1
  O  O274  1  0.12879000  0.66589000  0.06878000  1
  O  O275  1  0.31001000  0.08411000  0.43122000  1
  O  O276  1  0.30895000  0.45955000  0.42790000  1
  O  O277  1  0.13105000  0.29045000  0.07210000  1
  O  O278  1  0.56700000  0.09650000  0.94100000  1
  O  O279  1  0.87600000  0.65350000  0.55900000  1
  O  O280  1  0.18346000  0.57466000  0.13912000  1
  O  O281  1  0.29434000  0.17534000  0.36088000  1
  O  O282  1  0.33438000  0.93648000  0.43656000  1
  O  O283  1  0.14782000  0.81352000  0.06344000  1
  O  O284  1  0.34650000  0.31700000  0.44100000  1
  O  O285  1  0.15550000  0.43300000  0.05900000  1
  O  O286  1  0.55767000  0.96907000  0.85754000  1
  O  O287  1  0.95013000  0.78093000  0.64246000  1
  O  O288  1  0.21029000  0.25959000  0.15898000  1
  O  O289  1  0.30131000  0.49041000  0.34102000  1
  O  O290  1  0.91589000  0.87879000  0.56878000  1
  O  O291  1  0.59711000  0.87121000  0.93122000  1
  O  O292  1  0.52765000  0.85395000  0.69730000  1
  O  O293  1  0.08035000  0.89605000  0.80270000  1
  O  O294  1  0.50959000  0.96029000  0.65898000  1
  O  O295  1  0.10061000  0.78971000  0.84102000  1
  O  O296  1  0.18648000  0.08438000  0.93656000  1
  O  O297  1  0.49992000  0.66562000  0.56344000  1
  O  O298  1  0.70955000  0.05895000  0.92790000  1
  O  O299  1  0.03165000  0.69105000  0.57210000  1
  O  O300  1  0.54045000  0.88105000  0.57210000  1
  O  O301  1  0.21835000  0.86895000  0.92790000  1
  O  O302  1  0.06352000  0.89782000  0.56344000  1
  O  O303  1  0.75008000  0.85218000  0.93656000  1
  O  O304  1  0.74041000  0.05131000  0.84102000  1
  O  O305  1  0.14939000  0.69869000  0.65898000  1
  O  O306  1  0.72235000  0.90665000  0.80270000  1
  O  O307  1  0.16965000  0.84335000  0.69730000  1
  O  O308  1  0.33411000  0.06001000  0.93122000  1
  O  O309  1  0.65289000  0.68999000  0.56878000  1
  O  O310  1  0.03971000  0.85061000  0.34102000  1
  O  O311  1  0.94869000  0.89939000  0.15898000  1
  O  O312  1  0.69233000  0.86153000  0.64246000  1
  O  O313  1  0.29987000  0.88847000  0.85754000  1
  O  O314  1  0.90350000  0.62600000  0.05900000  1
  O  O315  1  0.09450000  0.12400000  0.44100000  1
  O  O316  1  0.91562000  0.24992000  0.06344000  1
  O  O317  1  0.10218000  0.50008000  0.43656000  1
  O  O318  1  0.06654000  0.18554000  0.36088000  1
  O  O319  1  0.95566000  0.56446000  0.13912000  1
  O  O320  1  0.68300000  0.90550000  0.55900000  1
  O  O321  1  0.37400000  0.84450000  0.94100000  1
  O  O322  1  0.94105000  0.78165000  0.07210000  1
  O  O323  1  0.11895000  0.96835000  0.42790000  1
  O  O324  1  0.12121000  0.34711000  0.43122000  1
  O  O325  1  0.93999000  0.40289000  0.06878000  1
  O  O326  1  0.87744000  0.95944000  0.90168000  1
  O  O327  1  0.22576000  0.79056000  0.59832000  1
  O  O328  1  0.03093000  0.70013000  0.14246000  1
  O  O329  1  0.13847000  0.04987000  0.35754000  1
  O  O330  1  0.19224000  0.77424000  0.40168000  1
  O  O331  1  0.04056000  0.97576000  0.09832000  1
  O  O332  1  0.14605000  0.83035000  0.30270000  1
  O  O333  1  0.09335000  0.91965000  0.19730000  1
  O  O334  1  0.42534000  0.04434000  0.86088000  1
  O  O335  1  0.81446000  0.70566000  0.63912000  1
  Sm  Sm336  1  0.20983000  0.20983000  0.41966000  1
  Sm  Sm337  1  0.79017000  0.79017000  0.58034000  1
  Sm  Sm338  1  0.04017000  0.54017000  0.08034000  1
  Sm  Sm339  1  0.45983000  0.95983000  0.91966000  1
  Sm  Sm340  1  0.20817000  0.91104000  0.37596000  1
  Sm  Sm341  1  0.08221000  0.83896000  0.12404000  1
  Sm  Sm342  1  0.16104000  0.95817000  0.87596000  1
  Sm  Sm343  1  0.53508000  0.79183000  0.62404000  1
  Sm  Sm344  1  0.08896000  0.83221000  0.62404000  1
  Sm  Sm345  1  0.71492000  0.91779000  0.87596000  1
  Sm  Sm346  1  0.04183000  0.28508000  0.12404000  1
  Sm  Sm347  1  0.16779000  0.46492000  0.37596000  1
