# generated using pymatgen
data_TiH3(C4O3)3
_symmetry_space_group_name_H-M   'P 1'
_cell_length_a   19.84220085
_cell_length_b   19.84220085
_cell_length_c   19.84220085
_cell_angle_alpha   109.47122063
_cell_angle_beta   109.47122063
_cell_angle_gamma   109.47122063
_symmetry_Int_Tables_number   1
_chemical_formula_structural   TiH3(C4O3)3
_chemical_formula_sum   'Ti8 H24 C96 O72'
_cell_volume   6013.78134072
_cell_formula_units_Z   8
loop_
 _symmetry_equiv_pos_site_id
 _symmetry_equiv_pos_as_xyz
  1  'x, y, z'
loop_
 _atom_site_type_symbol
 _atom_site_label
 _atom_site_symmetry_multiplicity
 _atom_site_fract_x
 _atom_site_fract_y
 _atom_site_fract_z
 _atom_site_occupancy
  C  C0  1  0.20056000  0.43278000  0.61418000  1
  C  C1  1  0.81860000  0.08638000  0.88582000  1
  C  C2  1  0.14745000  0.44306000  0.55079000  1
  C  C3  1  0.89227000  0.09666000  0.94921000  1
  C  C4  1  0.32712000  0.84802000  0.13270000  1
  C  C5  1  0.71532000  0.69442000  0.36730000  1
  C  C6  1  0.24147000  0.86460000  0.03047000  1
  C  C7  1  0.83413000  0.71100000  0.46953000  1
  C  C8  1  0.33413000  0.46953000  0.71100000  1
  C  C9  1  0.75853000  0.12313000  0.78900000  1
  C  C10  1  0.28468000  0.47910000  0.65198000  1
  C  C11  1  0.82712000  0.13270000  0.84802000  1
  C  C12  1  0.31860000  0.88582000  0.08638000  1
  C  C13  1  0.79944000  0.73222000  0.41362000  1
  C  C14  1  0.52090000  0.30558000  0.67288000  1
  C  C15  1  0.53047000  0.36460000  0.74147000  1
  C  C16  1  0.55694000  0.20439000  0.60773000  1
  C  C17  1  0.56722000  0.26778000  0.68140000  1
  C  C18  1  0.58638000  0.38582000  0.81860000  1
  C  C19  1  0.59666000  0.44921000  0.89227000  1
  C  C20  1  0.62313000  0.28900000  0.75853000  1
  C  C21  1  0.63270000  0.34802000  0.82712000  1
  C  C22  1  0.39227000  0.94921000  0.09666000  1
  C  C23  1  0.85255000  0.79561000  0.40334000  1
  C  C24  1  0.55079000  0.64745000  0.94306000  1
  C  C25  1  0.70439000  0.10773000  0.55694000  1
  C  C26  1  0.19442000  0.86730000  0.71532000  1
  C  C27  1  0.21100000  0.96953000  0.83413000  1
  C  C28  1  0.23222000  0.91362000  0.79944000  1
  C  C29  1  0.29561000  0.90334000  0.85255000  1
  C  C30  1  0.05079000  0.94306000  0.64745000  1
  C  C31  1  0.11418000  0.93278000  0.70056000  1
  C  C32  1  0.13540000  0.87687000  0.66587000  1
  C  C33  1  0.15198000  0.97910000  0.78468000  1
  C  C34  1  0.61418000  0.70056000  0.93278000  1
  C  C35  1  0.76778000  0.18140000  0.56722000  1
  C  C36  1  0.36730000  0.21532000  0.19442000  1
  C  C37  1  0.02090000  0.67288000  0.30558000  1
  C  C38  1  0.37687000  0.16587000  0.13540000  1
  C  C39  1  0.03047000  0.74147000  0.36460000  1
  C  C40  1  0.63540000  0.66587000  0.87687000  1
  C  C41  1  0.78900000  0.25853000  0.62313000  1
  C  C42  1  0.65198000  0.78468000  0.97910000  1
  C  C43  1  0.80558000  0.17288000  0.52090000  1
  C  C44  1  0.40334000  0.35255000  0.29561000  1
  C  C45  1  0.05694000  0.60773000  0.20439000  1
  C  C46  1  0.41362000  0.29944000  0.23222000  1
  C  C47  1  0.06722000  0.68140000  0.26778000  1
  C  C48  1  0.43278000  0.20056000  0.11418000  1
  C  C49  1  0.08638000  0.81860000  0.38582000  1
  C  C50  1  0.44306000  0.14745000  0.05079000  1
  C  C51  1  0.09666000  0.89227000  0.44921000  1
  C  C52  1  0.69442000  0.71532000  0.86730000  1
  C  C53  1  0.84802000  0.32712000  0.63270000  1
  C  C54  1  0.71100000  0.83413000  0.96953000  1
  C  C55  1  0.86460000  0.24147000  0.53047000  1
  C  C56  1  0.46953000  0.33413000  0.21100000  1
  C  C57  1  0.12313000  0.75853000  0.28900000  1
  C  C58  1  0.47910000  0.28468000  0.15198000  1
  C  C59  1  0.13270000  0.82712000  0.34802000  1
  C  C60  1  0.73222000  0.79944000  0.91362000  1
  C  C61  1  0.88582000  0.31860000  0.58638000  1
  C  C62  1  0.34802000  0.63270000  0.32712000  1
  C  C63  1  0.36460000  0.53047000  0.24147000  1
  C  C64  1  0.38582000  0.58638000  0.31860000  1
  C  C65  1  0.44921000  0.59666000  0.39227000  1
  C  C66  1  0.20439000  0.55694000  0.10773000  1
  C  C67  1  0.26778000  0.56722000  0.18140000  1
  C  C68  1  0.28900000  0.62313000  0.25853000  1
  C  C69  1  0.30558000  0.52090000  0.17288000  1
  C  C70  1  0.79561000  0.85255000  0.90334000  1
  C  C71  1  0.94921000  0.39227000  0.59666000  1
  C  C72  1  0.64745000  0.55079000  0.44306000  1
  C  C73  1  0.10773000  0.70439000  0.05694000  1
  C  C74  1  0.86730000  0.19442000  0.21532000  1
  C  C75  1  0.87687000  0.13540000  0.16587000  1
  C  C76  1  0.90334000  0.29561000  0.35255000  1
  C  C77  1  0.91362000  0.23222000  0.29944000  1
  C  C78  1  0.93278000  0.11418000  0.20056000  1
  C  C79  1  0.94306000  0.05079000  0.14745000  1
  C  C80  1  0.96953000  0.21100000  0.33413000  1
  C  C81  1  0.97910000  0.15198000  0.28468000  1
  C  C82  1  0.70056000  0.61418000  0.43278000  1
  C  C83  1  0.18140000  0.76778000  0.06722000  1
  C  C84  1  0.67288000  0.02090000  0.80558000  1
  C  C85  1  0.21532000  0.36730000  0.69442000  1
  C  C86  1  0.74147000  0.03047000  0.86460000  1
  C  C87  1  0.16587000  0.37687000  0.63540000  1
  C  C88  1  0.66587000  0.63540000  0.37687000  1
  C  C89  1  0.25853000  0.78900000  0.12313000  1
  C  C90  1  0.78468000  0.65198000  0.47910000  1
  C  C91  1  0.17288000  0.80558000  0.02090000  1
  C  C92  1  0.60773000  0.05694000  0.70439000  1
  C  C93  1  0.35255000  0.40334000  0.79561000  1
  C  C94  1  0.68140000  0.06722000  0.76778000  1
  C  C95  1  0.29944000  0.41362000  0.73222000  1
  H  H96  1  0.38229000  0.86320000  0.17269000  1
  H  H97  1  0.69051000  0.70960000  0.32731000  1
  H  H98  1  0.48091000  0.29040000  0.61771000  1
  H  H99  1  0.67269000  0.36320000  0.88229000  1
  H  H100  1  0.30949000  0.51909000  0.63680000  1
  H  H101  1  0.88229000  0.17269000  0.86320000  1
  H  H102  1  0.32731000  0.19051000  0.20960000  1
  H  H103  1  0.98091000  0.61771000  0.29040000  1
  H  H104  1  0.20960000  0.82731000  0.69051000  1
  H  H105  1  0.13680000  0.01909000  0.80949000  1
  H  H106  1  0.63680000  0.80949000  0.01909000  1
  H  H107  1  0.79040000  0.11771000  0.48091000  1
  H  H108  1  0.70960000  0.69051000  0.82731000  1
  H  H109  1  0.86320000  0.38229000  0.67269000  1
  H  H110  1  0.36320000  0.67269000  0.38229000  1
  H  H111  1  0.29040000  0.48091000  0.11771000  1
  H  H112  1  0.51909000  0.30949000  0.13680000  1
  H  H113  1  0.17269000  0.88229000  0.36320000  1
  H  H114  1  0.61771000  0.98091000  0.79040000  1
  H  H115  1  0.19051000  0.32731000  0.70960000  1
  H  H116  1  0.82731000  0.20960000  0.19051000  1
  H  H117  1  0.01909000  0.13680000  0.30949000  1
  H  H118  1  0.80949000  0.63680000  0.51909000  1
  H  H119  1  0.11771000  0.79040000  0.98091000  1
  O  O120  1  0.42690000  0.43452000  0.81962000  1
  O  O121  1  0.61490000  0.10728000  0.68038000  1
  O  O122  1  0.49858000  0.17539000  0.53979000  1
  O  O123  1  0.63560000  0.45879000  0.96021000  1
  O  O124  1  0.17681000  0.50142000  0.54121000  1
  O  O125  1  0.96021000  0.13560000  0.95879000  1
  O  O126  1  0.23339000  0.90048000  0.98651000  1
  O  O127  1  0.91397000  0.74688000  0.51349000  1
  O  O128  1  0.48651000  0.40048000  0.73339000  1
  O  O129  1  0.66709000  0.25312000  0.76661000  1
  O  O130  1  0.56548000  0.49238000  0.88510000  1
  O  O131  1  0.60728000  0.18038000  0.61490000  1
  O  O132  1  0.41397000  0.51349000  0.74688000  1
  O  O133  1  0.76661000  0.16709000  0.75312000  1
  O  O134  1  0.50762000  0.57310000  0.89272000  1
  O  O135  1  0.68038000  0.11490000  0.60728000  1
  O  O136  1  0.54121000  0.67681000  0.00142000  1
  O  O137  1  0.67539000  0.03979000  0.49858000  1
  O  O138  1  0.46021000  0.95879000  0.13560000  1
  O  O139  1  0.82319000  0.82461000  0.36440000  1
  O  O140  1  0.38510000  0.99238000  0.06548000  1
  O  O141  1  0.92690000  0.81962000  0.43452000  1
  O  O142  1  0.33291000  0.08603000  0.09952000  1
  O  O143  1  0.98651000  0.73339000  0.40048000  1
  O  O144  1  0.31962000  0.93452000  0.92690000  1
  O  O145  1  0.00762000  0.89272000  0.57310000  1
  O  O146  1  0.24688000  0.01349000  0.91397000  1
  O  O147  1  0.09952000  0.83291000  0.58603000  1
  O  O148  1  0.59952000  0.58603000  0.83291000  1
  O  O149  1  0.75312000  0.26661000  0.66709000  1
  O  O150  1  0.36440000  0.32319000  0.32461000  1
  O  O151  1  0.99858000  0.53979000  0.17539000  1
  O  O152  1  0.32461000  0.86440000  0.82319000  1
  O  O153  1  0.04121000  0.00142000  0.67681000  1
  O  O154  1  0.39272000  0.07310000  0.00762000  1
  O  O155  1  0.06548000  0.88510000  0.49238000  1
  O  O156  1  0.43452000  0.42690000  0.31962000  1
  O  O157  1  0.10728000  0.61490000  0.18038000  1
  O  O158  1  0.45879000  0.63560000  0.46021000  1
  O  O159  1  0.17539000  0.49858000  0.03979000  1
  O  O160  1  0.50142000  0.17681000  0.04121000  1
  O  O161  1  0.13560000  0.96021000  0.45879000  1
  O  O162  1  0.74688000  0.91397000  0.01349000  1
  O  O163  1  0.90048000  0.23339000  0.48651000  1
  O  O164  1  0.40048000  0.48651000  0.23339000  1
  O  O165  1  0.25312000  0.66709000  0.26661000  1
  O  O166  1  0.49238000  0.56548000  0.38510000  1
  O  O167  1  0.18038000  0.60728000  0.11490000  1
  O  O168  1  0.51349000  0.41397000  0.24688000  1
  O  O169  1  0.16709000  0.76661000  0.25312000  1
  O  O170  1  0.57310000  0.50762000  0.39272000  1
  O  O171  1  0.11490000  0.68038000  0.10728000  1
  O  O172  1  0.67681000  0.54121000  0.50142000  1
  O  O173  1  0.03979000  0.67539000  0.99858000  1
  O  O174  1  0.82461000  0.82319000  0.86440000  1
  O  O175  1  0.95879000  0.46021000  0.63560000  1
  O  O176  1  0.81962000  0.92690000  0.93452000  1
  O  O177  1  0.99238000  0.38510000  0.56548000  1
  O  O178  1  0.73339000  0.98651000  0.90048000  1
  O  O179  1  0.08603000  0.33291000  0.59952000  1
  O  O180  1  0.89272000  0.00762000  0.07310000  1
  O  O181  1  0.93452000  0.31962000  0.42690000  1
  O  O182  1  0.83291000  0.09952000  0.08603000  1
  O  O183  1  0.01349000  0.24688000  0.41397000  1
  O  O184  1  0.58603000  0.59952000  0.33291000  1
  O  O185  1  0.26661000  0.75312000  0.16709000  1
  O  O186  1  0.53979000  0.99858000  0.67539000  1
  O  O187  1  0.32319000  0.36440000  0.82461000  1
  O  O188  1  0.86440000  0.32461000  0.32319000  1
  O  O189  1  0.00142000  0.04121000  0.17681000  1
  O  O190  1  0.88510000  0.06548000  0.99238000  1
  O  O191  1  0.07310000  0.39272000  0.50762000  1
  Ti  Ti192  1  0.50000000  0.50000000  0.79810000  1
  Ti  Ti193  1  0.70190000  0.20190000  0.70190000  1
  Ti  Ti194  1  0.29810000  1.00000000  1.00000000  1
  Ti  Ti195  1  0.00000000  0.79810000  0.50000000  1
  Ti  Ti196  1  0.50000000  0.50000000  0.29810000  1
  Ti  Ti197  1  0.20190000  0.70190000  0.20190000  1
  Ti  Ti198  1  0.79810000  1.00000000  1.00000000  1
  Ti  Ti199  1  1.00000000  0.29810000  0.50000000  1
