# generated using pymatgen
data_Zn5H38C36(NO9)2
_symmetry_space_group_name_H-M   'P 1'
_cell_length_a   13.65460000
_cell_length_b   14.21260000
_cell_length_c   14.63770000
_cell_angle_alpha   76.05700000
_cell_angle_beta   86.39000000
_cell_angle_gamma   67.91000000
_symmetry_Int_Tables_number   1
_chemical_formula_structural   Zn5H38C36(NO9)2
_chemical_formula_sum   'Zn10 H76 C72 N4 O36'
_cell_volume   2553.41385701
_cell_formula_units_Z   2
loop_
 _symmetry_equiv_pos_site_id
 _symmetry_equiv_pos_as_xyz
  1  'x, y, z'
loop_
 _atom_site_type_symbol
 _atom_site_label
 _atom_site_symmetry_multiplicity
 _atom_site_fract_x
 _atom_site_fract_y
 _atom_site_fract_z
 _atom_site_occupancy
  Zn  Zn0  1  0.01581000  0.37062000  0.14125000  1
  Zn  Zn1  1  0.14957000  0.75653000  0.77590000  1
  Zn  Zn2  1  0.26143000  0.23310000  0.10812000  1
  Zn  Zn3  1  0.33469000  0.85763000  0.77075000  1
  Zn  Zn4  1  0.48836000  0.94701000  0.87258000  1
  Zn  Zn5  1  0.51164000  0.05299000  0.12742000  1
  Zn  Zn6  1  0.66531000  0.14237000  0.22925000  1
  Zn  Zn7  1  0.73857000  0.76690000  0.89188000  1
  Zn  Zn8  1  0.85043000  0.24347000  0.22410000  1
  Zn  Zn9  1  0.98419000  0.62938000  0.85875000  1
  H  H10  1  0.01510000  0.55180000  0.62590000  1
  H  H11  1  0.01930000  0.94410000  0.34630000  1
  H  H12  1  0.02000000  0.38890000  0.83300000  1
  H  H13  1  0.07040000  0.34390000  0.35700000  1
  H  H14  1  0.07070000  0.07780000  0.26550000  1
  H  H15  1  0.07790000  0.97520000  0.15910000  1
  H  H16  1  0.07980000  0.68960000  0.61710000  1
  H  H17  1  0.08100000  0.40460000  0.73980000  1
  H  H18  1  0.08520000  0.85430000  0.49460000  1
  H  H19  1  0.12960000  0.74330000  0.03320000  1
  H  H20  1  0.13250000  0.53120000  0.09040000  1
  H  H21  1  0.13300000  0.45200000  0.97080000  1
  H  H22  1  0.14050000  0.51410000  0.25130000  1
  H  H23  1  0.14790000  0.58230000  0.68370000  1
  H  H24  1  0.16710000  0.06770000  0.93890000  1
  H  H25  1  0.18340000  0.39170000  0.27060000  1
  H  H26  1  0.18490000  0.35490000  0.88030000  1
  H  H27  1  0.19080000  0.45420000  0.80770000  1
  H  H28  1  0.19100000  0.82550000  0.11590000  1
  H  H29  1  0.24580000  0.44970000  0.12590000  1
  H  H30  1  0.24750000  0.03940000  0.48900000  1
  H  H31  1  0.26180000  0.01200000  0.15770000  1
  H  H32  1  0.28700000  0.15890000  0.81740000  1
  H  H33  1  0.30060000  0.60430000  0.11920000  1
  H  H34  1  0.30460000  0.21450000  0.89220000  1
  H  H35  1  0.34550000  0.46310000  0.92390000  1
  H  H36  1  0.35290000  0.73800000  0.03680000  1
  H  H37  1  0.35520000  0.93970000  0.10830000  1
  H  H38  1  0.36300000  0.07100000  0.98400000  1
  H  H39  1  0.36410000  0.11880000  0.68080000  1
  H  H40  1  0.36660000  0.97830000  0.28750000  1
  H  H41  1  0.38880000  0.86890000  0.26660000  1
  H  H42  1  0.40740000  0.23630000  0.75420000  1
  H  H43  1  0.41970000  0.97260000  0.62330000  1
  H  H44  1  0.42180000  0.43910000  0.17020000  1
  H  H45  1  0.46270000  0.05800000  0.34460000  1
  H  H46  1  0.46590000  0.11910000  0.62450000  1
  H  H47  1  0.47860000  0.18490000  0.84680000  1
  H  H48  1  0.52140000  0.81510000  0.15320000  1
  H  H49  1  0.53410000  0.88090000  0.37550000  1
  H  H50  1  0.53730000  0.94200000  0.65540000  1
  H  H51  1  0.57820000  0.56090000  0.82980000  1
  H  H52  1  0.58030000  0.02740000  0.37670000  1
  H  H53  1  0.59260000  0.76370000  0.24580000  1
  H  H54  1  0.61120000  0.13110000  0.73340000  1
  H  H55  1  0.63340000  0.02170000  0.71250000  1
  H  H56  1  0.63590000  0.88120000  0.31920000  1
  H  H57  1  0.63700000  0.92900000  0.01600000  1
  H  H58  1  0.64480000  0.06030000  0.89170000  1
  H  H59  1  0.64710000  0.26200000  0.96320000  1
  H  H60  1  0.65450000  0.53690000  0.07610000  1
  H  H61  1  0.69540000  0.78550000  0.10780000  1
  H  H62  1  0.69940000  0.39570000  0.88080000  1
  H  H63  1  0.71300000  0.84110000  0.18260000  1
  H  H64  1  0.73820000  0.98800000  0.84230000  1
  H  H65  1  0.75250000  0.96060000  0.51100000  1
  H  H66  1  0.75420000  0.55030000  0.87410000  1
  H  H67  1  0.80900000  0.17450000  0.88410000  1
  H  H68  1  0.80920000  0.54580000  0.19230000  1
  H  H69  1  0.81510000  0.64510000  0.11970000  1
  H  H70  1  0.81660000  0.60830000  0.72940000  1
  H  H71  1  0.83290000  0.93230000  0.06110000  1
  H  H72  1  0.85210000  0.41770000  0.31630000  1
  H  H73  1  0.85950000  0.48590000  0.74870000  1
  H  H74  1  0.86700000  0.54800000  0.02920000  1
  H  H75  1  0.86750000  0.46880000  0.90960000  1
  H  H76  1  0.87040000  0.25670000  0.96680000  1
  H  H77  1  0.91480000  0.14570000  0.50540000  1
  H  H78  1  0.91900000  0.59540000  0.26020000  1
  H  H79  1  0.92020000  0.31040000  0.38290000  1
  H  H80  1  0.92210000  0.02480000  0.84090000  1
  H  H81  1  0.92930000  0.92220000  0.73450000  1
  H  H82  1  0.92960000  0.65610000  0.64300000  1
  H  H83  1  0.98000000  0.61110000  0.16700000  1
  H  H84  1  0.98070000  0.05590000  0.65370000  1
  H  H85  1  0.98490000  0.44820000  0.37410000  1
  C  C86  1  0.00590000  0.40180000  0.33140000  1
  C  C87  1  0.02550000  0.17170000  0.96020000  1
  C  C88  1  0.05130000  0.93740000  0.13090000  1
  C  C89  1  0.05430000  0.43270000  0.79450000  1
  C  C90  1  0.05610000  0.03230000  0.88310000  1
  C  C91  1  0.06670000  0.96210000  0.37470000  1
  C  C92  1  0.06700000  0.22680000  0.01630000  1
  C  C93  1  0.07940000  0.63920000  0.67500000  1
  C  C94  1  0.08220000  0.79900000  0.05550000  1
  C  C95  1  0.09470000  0.08780000  0.92930000  1
  C  C96  1  0.09730000  0.04230000  0.32630000  1
  C  C97  1  0.10510000  0.90920000  0.46330000  1
  C  C98  1  0.11880000  0.84960000  0.10230000  1
  C  C99  1  0.13190000  0.93850000  0.85040000  1
  C  C100  1  0.13630000  0.45590000  0.23040000  1
  C  C101  1  0.14450000  0.42690000  0.84920000  1
  C  C102  1  0.16690000  0.06970000  0.36790000  1
  C  C103  1  0.17100000  0.46190000  0.12860000  1
  C  C104  1  0.17340000  0.93660000  0.50720000  1
  C  C105  1  0.20330000  0.01890000  0.45930000  1
  C  C106  1  0.20540000  0.15260000  0.31130000  1
  C  C107  1  0.21260000  0.88120000  0.60760000  1
  C  C108  1  0.33730000  0.98940000  0.14770000  1
  C  C109  1  0.33850000  0.15840000  0.86040000  1
  C  C110  1  0.37010000  0.63850000  0.83750000  1
  C  C111  1  0.37190000  0.59090000  0.10830000  1
  C  C112  1  0.39650000  0.93550000  0.24260000  1
  C  C113  1  0.40280000  0.67150000  0.06030000  1
  C  C114  1  0.41740000  0.44960000  0.91700000  1
  C  C115  1  0.43260000  0.17460000  0.80550000  1
  C  C116  1  0.44000000  0.08250000  0.67920000  1
  C  C117  1  0.44400000  0.49270000  0.13980000  1
  C  C118  1  0.45000000  0.52750000  0.87340000  1
  C  C119  1  0.45400000  0.26510000  0.00350000  1
  C  C120  1  0.46420000  0.97230000  0.67250000  1
  C  C121  1  0.49110000  0.34920000  0.95170000  1
  C  C122  1  0.50890000  0.65080000  0.04830000  1
  C  C123  1  0.53580000  0.02770000  0.32750000  1
  C  C124  1  0.54600000  0.73490000  0.99650000  1
  C  C125  1  0.55000000  0.47250000  0.12660000  1
  C  C126  1  0.55600000  0.50730000  0.86020000  1
  C  C127  1  0.56000000  0.91750000  0.32080000  1
  C  C128  1  0.56740000  0.82540000  0.19450000  1
  C  C129  1  0.58260000  0.55040000  0.08300000  1
  C  C130  1  0.59720000  0.32850000  0.93970000  1
  C  C131  1  0.60350000  0.06450000  0.75740000  1
  C  C132  1  0.62810000  0.40910000  0.89170000  1
  C  C133  1  0.62990000  0.36150000  0.16250000  1
  C  C134  1  0.66150000  0.84160000  0.13960000  1
  C  C135  1  0.66270000  0.01060000  0.85230000  1
  C  C136  1  0.78740000  0.11880000  0.39240000  1
  C  C137  1  0.79460000  0.84740000  0.68870000  1
  C  C138  1  0.79670000  0.98110000  0.54070000  1
  C  C139  1  0.82660000  0.06340000  0.49280000  1
  C  C140  1  0.82900000  0.53810000  0.87140000  1
  C  C141  1  0.83310000  0.93030000  0.63210000  1
  C  C142  1  0.85550000  0.57310000  0.15080000  1
  C  C143  1  0.86370000  0.54410000  0.76960000  1
  C  C144  1  0.86810000  0.06150000  0.14960000  1
  C  C145  1  0.88120000  0.15040000  0.89770000  1
  C  C146  1  0.89490000  0.09080000  0.53670000  1
  C  C147  1  0.90270000  0.95770000  0.67370000  1
  C  C148  1  0.90530000  0.91220000  0.07070000  1
  C  C149  1  0.91780000  0.20100000  0.94450000  1
  C  C150  1  0.92060000  0.36080000  0.32500000  1
  C  C151  1  0.93300000  0.77320000  0.98370000  1
  C  C152  1  0.93330000  0.03790000  0.62530000  1
  C  C153  1  0.94390000  0.96770000  0.11690000  1
  C  C154  1  0.94570000  0.56730000  0.20550000  1
  C  C155  1  0.94870000  0.06260000  0.86910000  1
  C  C156  1  0.97450000  0.82830000  0.03980000  1
  C  C157  1  0.99410000  0.59820000  0.66860000  1
  N  N158  1  0.02650000  0.45900000  0.23800000  1
  N  N159  1  0.49220000  0.08120000  0.76760000  1
  N  N160  1  0.50780000  0.91880000  0.23240000  1
  N  N161  1  0.97350000  0.54100000  0.76200000  1
  O  O162  1  0.00460000  0.71190000  0.94040000  1
  O  O163  1  0.06030000  0.68820000  0.75360000  1
  O  O164  1  0.09360000  0.88460000  0.82020000  1
  O  O165  1  0.10240000  0.48860000  0.91830000  1
  O  O166  1  0.15120000  0.38530000  0.09160000  1
  O  O167  1  0.16180000  0.20860000  0.01830000  1
  O  O168  1  0.18270000  0.18150000  0.22390000  1
  O  O169  1  0.18900000  0.80410000  0.64460000  1
  O  O170  1  0.22940000  0.92110000  0.85600000  1
  O  O171  1  0.25760000  0.18540000  0.35510000  1
  O  O172  1  0.26380000  0.91940000  0.64710000  1
  O  O173  1  0.27400000  0.65130000  0.84730000  1
  O  O174  1  0.35590000  0.28450000  0.00750000  1
  O  O175  1  0.36180000  0.07730000  0.10020000  1
  O  O176  1  0.37630000  0.05920000  0.92880000  1
  O  O177  1  0.40690000  0.70750000  0.80200000  1
  O  O178  1  0.44740000  0.90990000  0.75860000  1
  O  O179  1  0.47430000  0.82090000  0.95890000  1
  O  O180  1  0.52570000  0.17910000  0.04110000  1
  O  O181  1  0.55260000  0.09010000  0.24140000  1
  O  O182  1  0.59310000  0.29250000  0.19800000  1
  O  O183  1  0.62370000  0.94080000  0.07120000  1
  O  O184  1  0.63820000  0.92270000  0.89980000  1
  O  O185  1  0.64410000  0.71550000  0.99250000  1
  O  O186  1  0.72600000  0.34870000  0.15270000  1
  O  O187  1  0.73620000  0.08060000  0.35290000  1
  O  O188  1  0.74240000  0.81460000  0.64490000  1
  O  O189  1  0.77060000  0.07890000  0.14400000  1
  O  O190  1  0.81100000  0.19590000  0.35540000  1
  O  O191  1  0.81730000  0.81850000  0.77610000  1
  O  O192  1  0.83820000  0.79140000  0.98170000  1
  O  O193  1  0.84880000  0.61470000  0.90840000  1
  O  O194  1  0.89760000  0.51140000  0.08170000  1
  O  O195  1  0.90640000  0.11540000  0.17980000  1
  O  O196  1  0.93970000  0.31180000  0.24640000  1
  O  O197  1  0.99540000  0.28810000  0.05960000  1
