# generated using pymatgen
data_Co3H10C16NO11
_symmetry_space_group_name_H-M   'P 1'
_cell_length_a   11.06280000
_cell_length_b   23.49830000
_cell_length_c   23.49830000
_cell_angle_alpha   120.00000000
_cell_angle_beta   90.00000000
_cell_angle_gamma   90.00000000
_symmetry_Int_Tables_number   1
_chemical_formula_structural   Co3H10C16NO11
_chemical_formula_sum   'Co18 H60 C96 N6 O66'
_cell_volume   5290.15724096
_cell_formula_units_Z   6
loop_
 _symmetry_equiv_pos_site_id
 _symmetry_equiv_pos_as_xyz
  1  'x, y, z'
loop_
 _atom_site_type_symbol
 _atom_site_label
 _atom_site_symmetry_multiplicity
 _atom_site_fract_x
 _atom_site_fract_y
 _atom_site_fract_z
 _atom_site_occupancy
  Co  Co0  1  0.02414000  0.23422000  0.19520000  1
  Co  Co1  1  0.10158000  0.09053000  0.37634000  1
  Co  Co2  1  0.12768000  0.86744000  0.12473000  1
  Co  Co3  1  0.19081000  0.03902000  0.23422000  1
  Co  Co4  1  0.26824000  0.71419000  0.09053000  1
  Co  Co5  1  0.29435000  0.74271000  0.86744000  1
  Co  Co6  1  0.35747000  0.80480000  0.03902000  1
  Co  Co7  1  0.43491000  0.62366000  0.71419000  1
  Co  Co8  1  0.46102000  0.87527000  0.74271000  1
  Co  Co9  1  0.52414000  0.76578000  0.80480000  1
  Co  Co10  1  0.60158000  0.90947000  0.62366000  1
  Co  Co11  1  0.62768000  0.13256000  0.87527000  1
  Co  Co12  1  0.69081000  0.96098000  0.76578000  1
  Co  Co13  1  0.76824000  0.28581000  0.90947000  1
  Co  Co14  1  0.79435000  0.25729000  0.13256000  1
  Co  Co15  1  0.85747000  0.19520000  0.96098000  1
  Co  Co16  1  0.93491000  0.37634000  0.28581000  1
  Co  Co17  1  0.96102000  0.12473000  0.25729000  1
  H  H18  1  0.03557000  0.94050000  0.30600000  1
  H  H19  1  0.05263000  0.85530000  0.99250000  1
  H  H20  1  0.05893000  0.15930000  0.00840000  1
  H  H21  1  0.06430000  0.39550000  0.41110000  1
  H  H22  1  0.06520000  0.46480000  0.52480000  1
  H  H23  1  0.09133000  0.39130000  0.96410000  1
  H  H24  1  0.09677000  0.91630000  0.69370000  1
  H  H25  1  0.11970000  0.57670000  0.61170000  1
  H  H26  1  0.13413000  0.49270000  0.05800000  1
  H  H27  1  0.14093000  0.60730000  0.10640000  1
  H  H28  1  0.20223000  0.63450000  0.94050000  1
  H  H29  1  0.21930000  0.86280000  0.85530000  1
  H  H30  1  0.22560000  0.15090000  0.15930000  1
  H  H31  1  0.23097000  0.98440000  0.39550000  1
  H  H32  1  0.23187000  0.94000000  0.46480000  1
  H  H33  1  0.25800000  0.42720000  0.39130000  1
  H  H34  1  0.26343000  0.22260000  0.91630000  1
  H  H35  1  0.28637000  0.96500000  0.57670000  1
  H  H36  1  0.30080000  0.43470000  0.49270000  1
  H  H37  1  0.30760000  0.50090000  0.60730000  1
  H  H38  1  0.36890000  0.69400000  0.63450000  1
  H  H39  1  0.38597000  0.00750000  0.86280000  1
  H  H40  1  0.39227000  0.99160000  0.15090000  1
  H  H41  1  0.39763000  0.58890000  0.98440000  1
  H  H42  1  0.39853000  0.47520000  0.94000000  1
  H  H43  1  0.42467000  0.03590000  0.42720000  1
  H  H44  1  0.43010000  0.30630000  0.22260000  1
  H  H45  1  0.45303000  0.38830000  0.96500000  1
  H  H46  1  0.46747000  0.94200000  0.43470000  1
  H  H47  1  0.47427000  0.89360000  0.50090000  1
  H  H48  1  0.53557000  0.05950000  0.69400000  1
  H  H49  1  0.55263000  0.14470000  0.00750000  1
  H  H50  1  0.55893000  0.84070000  0.99160000  1
  H  H51  1  0.56430000  0.60450000  0.58890000  1
  H  H52  1  0.56520000  0.53520000  0.47520000  1
  H  H53  1  0.59133000  0.60870000  0.03590000  1
  H  H54  1  0.59677000  0.08370000  0.30630000  1
  H  H55  1  0.61970000  0.42330000  0.38830000  1
  H  H56  1  0.63413000  0.50730000  0.94200000  1
  H  H57  1  0.64093000  0.39270000  0.89360000  1
  H  H58  1  0.70223000  0.36550000  0.05950000  1
  H  H59  1  0.71930000  0.13720000  0.14470000  1
  H  H60  1  0.72560000  0.84910000  0.84070000  1
  H  H61  1  0.73097000  0.01560000  0.60450000  1
  H  H62  1  0.73187000  0.06000000  0.53520000  1
  H  H63  1  0.75800000  0.57280000  0.60870000  1
  H  H64  1  0.76343000  0.77740000  0.08370000  1
  H  H65  1  0.78637000  0.03500000  0.42330000  1
  H  H66  1  0.80080000  0.56530000  0.50730000  1
  H  H67  1  0.80760000  0.49910000  0.39270000  1
  H  H68  1  0.86890000  0.30600000  0.36550000  1
  H  H69  1  0.88597000  0.99250000  0.13720000  1
  H  H70  1  0.89227000  0.00840000  0.84910000  1
  H  H71  1  0.89763000  0.41110000  0.01560000  1
  H  H72  1  0.89853000  0.52480000  0.06000000  1
  H  H73  1  0.92467000  0.96410000  0.57280000  1
  H  H74  1  0.93010000  0.69370000  0.77740000  1
  H  H75  1  0.95303000  0.61170000  0.03500000  1
  H  H76  1  0.96747000  0.05800000  0.56530000  1
  H  H77  1  0.97427000  0.10640000  0.49910000  1
  C  C78  1  0.01140000  0.43090000  0.42970000  1
  C  C79  1  0.01270000  0.47310000  0.49890000  1
  C  C80  1  0.02093000  0.18250000  0.04900000  1
  C  C81  1  0.02547000  0.04400000  0.53240000  1
  C  C82  1  0.02697000  0.07230000  0.49090000  1
  C  C83  1  0.03763000  0.26760000  0.92750000  1
  C  C84  1  0.04490000  0.63830000  0.70140000  1
  C  C85  1  0.04640000  0.59260000  0.63320000  1
  C  C86  1  0.07777000  0.94240000  0.27280000  1
  C  C87  1  0.09877000  0.92870000  0.66180000  1
  C  C88  1  0.10137000  0.97370000  0.57040000  1
  C  C89  1  0.10427000  0.99820000  0.52540000  1
  C  C90  1  0.12653000  0.83360000  0.98150000  1
  C  C91  1  0.15893000  0.30090000  0.93910000  1
  C  C92  1  0.16343000  0.36930000  0.95990000  1
  C  C93  1  0.16410000  0.65840000  0.73760000  1
  C  C94  1  0.17807000  0.00120000  0.43090000  1
  C  C95  1  0.17937000  0.97420000  0.47310000  1
  C  C96  1  0.18760000  0.13350000  0.18250000  1
  C  C97  1  0.19213000  0.51160000  0.04400000  1
  C  C98  1  0.19363000  0.58140000  0.07230000  1
  C  C99  1  0.20430000  0.34010000  0.26760000  1
  C  C100  1  0.21157000  0.93690000  0.63830000  1
  C  C101  1  0.21307000  0.95940000  0.59260000  1
  C  C102  1  0.24443000  0.66960000  0.94240000  1
  C  C103  1  0.26543000  0.26690000  0.92870000  1
  C  C104  1  0.26803000  0.40330000  0.97370000  1
  C  C105  1  0.27093000  0.47280000  0.99820000  1
  C  C106  1  0.29320000  0.85210000  0.83360000  1
  C  C107  1  0.32560000  0.36180000  0.30090000  1
  C  C108  1  0.33010000  0.40940000  0.36930000  1
  C  C109  1  0.33077000  0.92080000  0.65840000  1
  C  C110  1  0.34473000  0.57030000  0.00120000  1
  C  C111  1  0.34603000  0.50110000  0.97420000  1
  C  C112  1  0.35427000  0.95100000  0.13350000  1
  C  C113  1  0.35880000  0.46760000  0.51160000  1
  C  C114  1  0.36030000  0.50910000  0.58140000  1
  C  C115  1  0.37097000  0.07250000  0.34010000  1
  C  C116  1  0.37823000  0.29860000  0.93690000  1
  C  C117  1  0.37973000  0.36680000  0.95940000  1
  C  C118  1  0.41110000  0.72720000  0.66960000  1
  C  C119  1  0.43210000  0.33820000  0.26690000  1
  C  C120  1  0.43470000  0.42960000  0.40330000  1
  C  C121  1  0.43760000  0.47460000  0.47280000  1
  C  C122  1  0.45987000  0.01850000  0.85210000  1
  C  C123  1  0.49227000  0.06090000  0.36180000  1
  C  C124  1  0.49677000  0.04010000  0.40940000  1
  C  C125  1  0.49743000  0.26240000  0.92080000  1
  C  C126  1  0.51140000  0.56910000  0.57030000  1
  C  C127  1  0.51270000  0.52690000  0.50110000  1
  C  C128  1  0.52093000  0.81750000  0.95100000  1
  C  C129  1  0.52547000  0.95600000  0.46760000  1
  C  C130  1  0.52697000  0.92770000  0.50910000  1
  C  C131  1  0.53763000  0.73240000  0.07250000  1
  C  C132  1  0.54490000  0.36170000  0.29860000  1
  C  C133  1  0.54640000  0.40740000  0.36680000  1
  C  C134  1  0.57777000  0.05760000  0.72720000  1
  C  C135  1  0.59877000  0.07130000  0.33820000  1
  C  C136  1  0.60137000  0.02630000  0.42960000  1
  C  C137  1  0.60427000  0.00180000  0.47460000  1
  C  C138  1  0.62653000  0.16640000  0.01850000  1
  C  C139  1  0.65893000  0.69910000  0.06090000  1
  C  C140  1  0.66343000  0.63070000  0.04010000  1
  C  C141  1  0.66410000  0.34160000  0.26240000  1
  C  C142  1  0.67807000  0.99880000  0.56910000  1
  C  C143  1  0.67937000  0.02580000  0.52690000  1
  C  C144  1  0.68760000  0.86650000  0.81750000  1
  C  C145  1  0.69213000  0.48840000  0.95600000  1
  C  C146  1  0.69363000  0.41860000  0.92770000  1
  C  C147  1  0.70430000  0.65990000  0.73240000  1
  C  C148  1  0.71157000  0.06310000  0.36170000  1
  C  C149  1  0.71307000  0.04060000  0.40740000  1
  C  C150  1  0.74443000  0.33040000  0.05760000  1
  C  C151  1  0.76543000  0.73310000  0.07130000  1
  C  C152  1  0.76803000  0.59670000  0.02630000  1
  C  C153  1  0.77093000  0.52720000  0.00180000  1
  C  C154  1  0.79320000  0.14790000  0.16640000  1
  C  C155  1  0.82560000  0.63820000  0.69910000  1
  C  C156  1  0.83010000  0.59060000  0.63070000  1
  C  C157  1  0.83077000  0.07920000  0.34160000  1
  C  C158  1  0.84473000  0.42970000  0.99880000  1
  C  C159  1  0.84603000  0.49890000  0.02580000  1
  C  C160  1  0.85427000  0.04900000  0.86650000  1
  C  C161  1  0.85880000  0.53240000  0.48840000  1
  C  C162  1  0.86030000  0.49090000  0.41860000  1
  C  C163  1  0.87097000  0.92750000  0.65990000  1
  C  C164  1  0.87823000  0.70140000  0.06310000  1
  C  C165  1  0.87973000  0.63320000  0.04060000  1
  C  C166  1  0.91110000  0.27280000  0.33040000  1
  C  C167  1  0.93210000  0.66180000  0.73310000  1
  C  C168  1  0.93470000  0.57040000  0.59670000  1
  C  C169  1  0.93760000  0.52540000  0.52720000  1
  C  C170  1  0.95987000  0.98150000  0.14790000  1
  C  C171  1  0.99227000  0.93910000  0.63820000  1
  C  C172  1  0.99677000  0.95990000  0.59060000  1
  C  C173  1  0.99743000  0.73760000  0.07920000  1
  N  N174  1  0.10347000  0.05000000  0.44040000  1
  N  N175  1  0.27013000  0.60960000  0.05000000  1
  N  N176  1  0.43680000  0.55960000  0.60960000  1
  N  N177  1  0.60347000  0.95000000  0.55960000  1
  N  N178  1  0.77013000  0.39040000  0.95000000  1
  N  N179  1  0.93680000  0.44040000  0.39040000  1
  O  O180  1  0.01777000  0.02658000  0.19300000  1
  O  O181  1  0.02483000  0.22457000  0.94205000  1
  O  O182  1  0.07537000  0.89299000  0.21898000  1
  O  O183  1  0.07813000  0.18611000  0.09763000  1
  O  O184  1  0.08590000  0.15712000  0.20635000  1
  O  O185  1  0.08603000  0.70513000  0.07810000  1
  O  O186  1  0.10657000  0.12209000  0.30873000  1
  O  O187  1  0.12280000  0.38493000  0.28936000  1
  O  O188  1  0.12987000  0.99527000  0.28872000  1
  O  O189  1  0.15833000  0.80694000  0.92186000  1
  O  O190  1  0.16180000  0.70396000  0.79606000  1
  O  O191  1  0.18443000  0.83358000  0.02658000  1
  O  O192  1  0.19150000  0.28252000  0.22457000  1
  O  O193  1  0.24203000  0.67401000  0.89299000  1
  O  O194  1  0.24480000  0.08848000  0.18611000  1
  O  O195  1  0.25257000  0.95077000  0.15712000  1
  O  O196  1  0.25270000  0.62703000  0.70513000  1
  O  O197  1  0.27323000  0.81336000  0.12209000  1
  O  O198  1  0.28947000  0.09557000  0.38493000  1
  O  O199  1  0.29653000  0.70655000  0.99527000  1
  O  O200  1  0.32500000  0.88508000  0.80694000  1
  O  O201  1  0.32847000  0.90790000  0.70396000  1
  O  O202  1  0.35110000  0.80700000  0.83358000  1
  O  O203  1  0.35817000  0.05795000  0.28252000  1
  O  O204  1  0.40870000  0.78102000  0.67401000  1
  O  O205  1  0.41147000  0.90237000  0.08848000  1
  O  O206  1  0.41923000  0.79365000  0.95077000  1
  O  O207  1  0.41937000  0.92190000  0.62703000  1
  O  O208  1  0.43990000  0.69127000  0.81336000  1
  O  O209  1  0.45613000  0.71064000  0.09557000  1
  O  O210  1  0.46320000  0.71128000  0.70655000  1
  O  O211  1  0.49167000  0.07814000  0.88508000  1
  O  O212  1  0.49513000  0.20394000  0.90790000  1
  O  O213  1  0.51777000  0.97342000  0.80700000  1
  O  O214  1  0.52483000  0.77543000  0.05795000  1
  O  O215  1  0.57537000  0.10701000  0.78102000  1
  O  O216  1  0.57813000  0.81389000  0.90237000  1
  O  O217  1  0.58590000  0.84288000  0.79365000  1
  O  O218  1  0.58603000  0.29487000  0.92190000  1
  O  O219  1  0.60657000  0.87791000  0.69127000  1
  O  O220  1  0.62280000  0.61507000  0.71064000  1
  O  O221  1  0.62987000  0.00473000  0.71128000  1
  O  O222  1  0.65833000  0.19306000  0.07814000  1
  O  O223  1  0.66180000  0.29604000  0.20394000  1
  O  O224  1  0.68443000  0.16642000  0.97342000  1
  O  O225  1  0.69150000  0.71748000  0.77543000  1
  O  O226  1  0.74203000  0.32599000  0.10701000  1
  O  O227  1  0.74480000  0.91152000  0.81389000  1
  O  O228  1  0.75257000  0.04923000  0.84288000  1
  O  O229  1  0.75270000  0.37297000  0.29487000  1
  O  O230  1  0.77323000  0.18664000  0.87791000  1
  O  O231  1  0.78947000  0.90443000  0.61507000  1
  O  O232  1  0.79653000  0.29345000  0.00473000  1
  O  O233  1  0.82500000  0.11492000  0.19306000  1
  O  O234  1  0.82847000  0.09210000  0.29604000  1
  O  O235  1  0.85110000  0.19300000  0.16642000  1
  O  O236  1  0.85817000  0.94205000  0.71748000  1
  O  O237  1  0.90870000  0.21898000  0.32599000  1
  O  O238  1  0.91147000  0.09763000  0.91152000  1
  O  O239  1  0.91923000  0.20635000  0.04923000  1
  O  O240  1  0.91937000  0.07810000  0.37297000  1
  O  O241  1  0.93990000  0.30873000  0.18664000  1
  O  O242  1  0.95613000  0.28936000  0.90443000  1
  O  O243  1  0.96320000  0.28872000  0.29345000  1
  O  O244  1  0.99167000  0.92186000  0.11492000  1
  O  O245  1  0.99513000  0.79606000  0.09210000  1
