# generated using pymatgen
data_ZnH3C12NO4
_symmetry_space_group_name_H-M   'P 1'
_cell_length_a   16.66441055
_cell_length_b   16.66441055
_cell_length_c   16.66441055
_cell_angle_alpha   70.17921119
_cell_angle_beta   70.17921119
_cell_angle_gamma   70.17921119
_symmetry_Int_Tables_number   1
_chemical_formula_structural   ZnH3C12NO4
_chemical_formula_sum   'Zn6 H18 C72 N6 O24'
_cell_volume   3962.19397022
_cell_formula_units_Z   6
loop_
 _symmetry_equiv_pos_site_id
 _symmetry_equiv_pos_as_xyz
  1  'x, y, z'
loop_
 _atom_site_type_symbol
 _atom_site_label
 _atom_site_symmetry_multiplicity
 _atom_site_fract_x
 _atom_site_fract_y
 _atom_site_fract_z
 _atom_site_occupancy
  C  C0  1  0.54160000  0.96490000  0.06240000  1
  C  C1  1  0.33450000  0.51810000  0.07360000  1
  C  C2  1  0.33450000  0.07360000  0.51810000  1
  C  C3  1  0.49357000  0.95117000  0.95117000  1
  C  C4  1  0.76016000  0.88646000  0.47926000  1
  C  C5  1  0.76016000  0.47926000  0.88646000  1
  C  C6  1  0.54060000  0.91290000  0.01030000  1
  C  C7  1  0.54060000  0.01030000  0.91290000  1
  C  C8  1  0.48702000  0.89932000  0.89932000  1
  C  C9  1  0.81174000  0.93624000  0.48374000  1
  C  C10  1  0.81174000  0.48374000  0.93624000  1
  C  C11  1  0.48374000  0.81174000  0.93624000  1
  C  C12  1  0.48374000  0.93624000  0.81174000  1
  C  C13  1  0.91290000  0.01030000  0.54060000  1
  C  C14  1  0.91290000  0.54060000  0.01030000  1
  C  C15  1  0.07360000  0.33450000  0.51810000  1
  C  C16  1  0.07360000  0.51810000  0.33450000  1
  C  C17  1  0.47926000  0.76016000  0.88646000  1
  C  C18  1  0.47926000  0.88646000  0.76016000  1
  C  C19  1  0.79944000  0.79944000  0.47522000  1
  C  C20  1  0.79944000  0.47522000  0.79944000  1
  C  C21  1  0.96490000  0.06240000  0.54160000  1
  C  C22  1  0.47522000  0.79944000  0.79944000  1
  C  C23  1  0.48190000  0.66550000  0.92640000  1
  C  C24  1  0.48190000  0.92640000  0.66550000  1
  C  C25  1  0.93760000  0.45840000  0.03510000  1
  C  C26  1  0.89932000  0.89932000  0.48702000  1
  C  C27  1  0.89932000  0.48702000  0.89932000  1
  C  C28  1  0.06376000  0.18826000  0.51626000  1
  C  C29  1  0.06376000  0.51626000  0.18826000  1
  C  C30  1  0.98970000  0.08710000  0.45940000  1
  C  C31  1  0.98970000  0.45940000  0.08710000  1
  C  C32  1  0.95117000  0.95117000  0.49357000  1
  C  C33  1  0.95117000  0.49357000  0.95117000  1
  C  C34  1  0.11354000  0.23984000  0.52074000  1
  C  C35  1  0.11354000  0.52074000  0.23984000  1
  C  C36  1  0.88646000  0.76016000  0.47926000  1
  C  C37  1  0.88646000  0.47926000  0.76016000  1
  C  C38  1  0.04883000  0.04883000  0.50643000  1
  C  C39  1  0.04883000  0.50643000  0.04883000  1
  C  C40  1  0.01030000  0.91290000  0.54060000  1
  C  C41  1  0.01030000  0.54060000  0.91290000  1
  C  C42  1  0.93624000  0.81174000  0.48374000  1
  C  C43  1  0.93624000  0.48374000  0.81174000  1
  C  C44  1  0.10068000  0.10068000  0.51298000  1
  C  C45  1  0.10068000  0.51298000  0.10068000  1
  C  C46  1  0.06240000  0.54160000  0.96490000  1
  C  C47  1  0.51810000  0.33450000  0.07360000  1
  C  C48  1  0.51810000  0.07360000  0.33450000  1
  C  C49  1  0.52478000  0.20056000  0.20056000  1
  C  C50  1  0.03510000  0.93760000  0.45840000  1
  C  C51  1  0.20056000  0.20056000  0.52478000  1
  C  C52  1  0.20056000  0.52478000  0.20056000  1
  C  C53  1  0.52074000  0.11354000  0.23984000  1
  C  C54  1  0.52074000  0.23984000  0.11354000  1
  C  C55  1  0.92640000  0.48190000  0.66550000  1
  C  C56  1  0.92640000  0.66550000  0.48190000  1
  C  C57  1  0.08710000  0.98970000  0.45940000  1
  C  C58  1  0.08710000  0.45940000  0.98970000  1
  C  C59  1  0.51626000  0.06376000  0.18826000  1
  C  C60  1  0.51626000  0.18826000  0.06376000  1
  C  C61  1  0.18826000  0.06376000  0.51626000  1
  C  C62  1  0.18826000  0.51626000  0.06376000  1
  C  C63  1  0.51298000  0.10068000  0.10068000  1
  C  C64  1  0.45940000  0.98970000  0.08710000  1
  C  C65  1  0.45940000  0.08710000  0.98970000  1
  C  C66  1  0.23984000  0.11354000  0.52074000  1
  C  C67  1  0.23984000  0.52074000  0.11354000  1
  C  C68  1  0.50643000  0.04883000  0.04883000  1
  C  C69  1  0.66550000  0.48190000  0.92640000  1
  C  C70  1  0.66550000  0.92640000  0.48190000  1
  C  C71  1  0.45840000  0.03510000  0.93760000  1
  H  H72  1  0.78640000  0.99510000  0.48460000  1
  H  H73  1  0.78640000  0.48460000  0.99510000  1
  H  H74  1  0.48460000  0.78640000  0.99510000  1
  H  H75  1  0.48460000  0.99510000  0.78640000  1
  H  H76  1  0.00490000  0.21360000  0.51540000  1
  H  H77  1  0.00490000  0.51540000  0.21360000  1
  H  H78  1  0.76680000  0.76680000  0.46970000  1
  H  H79  1  0.76680000  0.46970000  0.76680000  1
  H  H80  1  0.46970000  0.76680000  0.76680000  1
  H  H81  1  0.53030000  0.23320000  0.23320000  1
  H  H82  1  0.23320000  0.23320000  0.53030000  1
  H  H83  1  0.23320000  0.53030000  0.23320000  1
  H  H84  1  0.99510000  0.78640000  0.48460000  1
  H  H85  1  0.99510000  0.48460000  0.78640000  1
  H  H86  1  0.51540000  0.00490000  0.21360000  1
  H  H87  1  0.51540000  0.21360000  0.00490000  1
  H  H88  1  0.21360000  0.00490000  0.51540000  1
  H  H89  1  0.21360000  0.51540000  0.00490000  1
  N  N90  1  0.54160000  0.06240000  0.96490000  1
  N  N91  1  0.96490000  0.54160000  0.06240000  1
  N  N92  1  0.93760000  0.03510000  0.45840000  1
  N  N93  1  0.06240000  0.96490000  0.54160000  1
  N  N94  1  0.03510000  0.45840000  0.93760000  1
  N  N95  1  0.45840000  0.93760000  0.03510000  1
  O  O96  1  0.37695000  0.52310000  0.12026000  1
  O  O97  1  0.37695000  0.12026000  0.52310000  1
  O  O98  1  0.99459000  0.36594000  0.51185000  1
  O  O99  1  0.99459000  0.51185000  0.36594000  1
  O  O100  1  0.36594000  0.51185000  0.99459000  1
  O  O101  1  0.36594000  0.99459000  0.51185000  1
  O  O102  1  0.48815000  0.63406000  0.00541000  1
  O  O103  1  0.48815000  0.00541000  0.63406000  1
  O  O104  1  0.12026000  0.37695000  0.52310000  1
  O  O105  1  0.12026000  0.52310000  0.37695000  1
  O  O106  1  0.47690000  0.62305000  0.87974000  1
  O  O107  1  0.47690000  0.87974000  0.62305000  1
  O  O108  1  0.52310000  0.37695000  0.12026000  1
  O  O109  1  0.52310000  0.12026000  0.37695000  1
  O  O110  1  0.87974000  0.47690000  0.62305000  1
  O  O111  1  0.87974000  0.62305000  0.47690000  1
  O  O112  1  0.51185000  0.36594000  0.99459000  1
  O  O113  1  0.51185000  0.99459000  0.36594000  1
  O  O114  1  0.63406000  0.48815000  0.00541000  1
  O  O115  1  0.63406000  0.00541000  0.48815000  1
  O  O116  1  0.00541000  0.48815000  0.63406000  1
  O  O117  1  0.00541000  0.63406000  0.48815000  1
  O  O118  1  0.62305000  0.47690000  0.87974000  1
  O  O119  1  0.62305000  0.87974000  0.47690000  1
  Zn  Zn120  1  0.08219667  0.50919333  0.50919000  1
  Zn  Zn121  1  0.50919000  0.50919333  0.08219667  1
  Zn  Zn122  1  0.50919333  0.08219667  0.50919000  1
  Zn  Zn123  1  0.49081000  0.49080667  0.91780333  1
  Zn  Zn124  1  0.49081000  0.91780000  0.49081000  1
  Zn  Zn125  1  0.91780333  0.49080667  0.49081000  1
