# generated using pymatgen
data_LaH3C7NO4
_symmetry_space_group_name_H-M   'P 1'
_cell_length_a   15.74250000
_cell_length_b   17.32304156
_cell_length_c   17.99871232
_cell_angle_alpha   77.82090558
_cell_angle_beta   64.06680073
_cell_angle_gamma   62.97492689
_symmetry_Int_Tables_number   1
_chemical_formula_structural   LaH3C7NO4
_chemical_formula_sum   'La8 H24 C56 N8 O32'
_cell_volume   3931.68957876
_cell_formula_units_Z   8
loop_
 _symmetry_equiv_pos_site_id
 _symmetry_equiv_pos_as_xyz
  1  'x, y, z'
loop_
 _atom_site_type_symbol
 _atom_site_label
 _atom_site_symmetry_multiplicity
 _atom_site_fract_x
 _atom_site_fract_y
 _atom_site_fract_z
 _atom_site_occupancy
  C  C0  1  0.82370000  0.86100000  0.06900000  1
  C  C1  1  0.24630000  0.36100000  0.56900000  1
  C  C2  1  0.69900000  0.88890000  0.00310000  1
  C  C3  1  0.40900000  0.38890000  0.50310000  1
  C  C4  1  0.79460000  0.83680000  0.01080000  1
  C  C5  1  0.35780000  0.33680000  0.51080000  1
  C  C6  1  0.67850000  0.86530000  0.94590000  1
  C  C7  1  0.51030000  0.36530000  0.44590000  1
  C  C8  1  0.09800000  0.54480000  0.15480000  1
  C  C9  1  0.20240000  0.04480000  0.65480000  1
  C  C10  1  0.75490000  0.79470000  0.89410000  1
  C  C11  1  0.55630000  0.29470000  0.39410000  1
  C  C12  1  0.12030000  0.82870000  0.84570000  1
  C  C13  1  0.20530000  0.32870000  0.34570000  1
  C  C14  1  0.84630000  0.74820000  0.90720000  1
  C  C15  1  0.49830000  0.24820000  0.40720000  1
  C  C16  1  0.16160000  0.97850000  0.67190000  1
  C  C17  1  0.18800000  0.47850000  0.17190000  1
  C  C18  1  0.12840000  0.86850000  0.76110000  1
  C  C19  1  0.24200000  0.36850000  0.26110000  1
  C  C20  1  0.13780000  0.95630000  0.61670000  1
  C  C21  1  0.28920000  0.45630000  0.11670000  1
  C  C22  1  0.10620000  0.84260000  0.70740000  1
  C  C23  1  0.34380000  0.34260000  0.20740000  1
  C  C24  1  0.93330000  0.67290000  0.85490000  1
  C  C25  1  0.53890000  0.17290000  0.35490000  1
  C  C26  1  0.11250000  0.88500000  0.63260000  1
  C  C27  1  0.36990000  0.38500000  0.13260000  1
  C  C28  1  0.88750000  0.11500000  0.36740000  1
  C  C29  1  0.63010000  0.61500000  0.86740000  1
  C  C30  1  0.06670000  0.32710000  0.14510000  1
  C  C31  1  0.46110000  0.82710000  0.64510000  1
  C  C32  1  0.89380000  0.15740000  0.29260000  1
  C  C33  1  0.65620000  0.65740000  0.79260000  1
  C  C34  1  0.86220000  0.04370000  0.38330000  1
  C  C35  1  0.71080000  0.54370000  0.88330000  1
  C  C36  1  0.87160000  0.13150000  0.23890000  1
  C  C37  1  0.75800000  0.63150000  0.73890000  1
  C  C38  1  0.83840000  0.02150000  0.32810000  1
  C  C39  1  0.81200000  0.52150000  0.82810000  1
  C  C40  1  0.15370000  0.25180000  0.09280000  1
  C  C41  1  0.50170000  0.75180000  0.59280000  1
  C  C42  1  0.87970000  0.17130000  0.15430000  1
  C  C43  1  0.79470000  0.67130000  0.65430000  1
  C  C44  1  0.24510000  0.20530000  0.10590000  1
  C  C45  1  0.44370000  0.70530000  0.60590000  1
  C  C46  1  0.90200000  0.45520000  0.84520000  1
  C  C47  1  0.79760000  0.95520000  0.34520000  1
  C  C48  1  0.32150000  0.13470000  0.05410000  1
  C  C49  1  0.48970000  0.63470000  0.55410000  1
  C  C50  1  0.20540000  0.16320000  0.98920000  1
  C  C51  1  0.64220000  0.66320000  0.48920000  1
  C  C52  1  0.30100000  0.11110000  0.99690000  1
  C  C53  1  0.59100000  0.61110000  0.49690000  1
  C  C54  1  0.17630000  0.13900000  0.93100000  1
  C  C55  1  0.75370000  0.63900000  0.43100000  1
  H  H56  1  0.65110000  0.93770000  0.03550000  1
  H  H57  1  0.37570000  0.43770000  0.53550000  1
  H  H58  1  0.61450000  0.89630000  0.94170000  1
  H  H59  1  0.54750000  0.39630000  0.44170000  1
  H  H60  1  0.74490000  0.77950000  0.85290000  1
  H  H61  1  0.62270000  0.27950000  0.35290000  1
  H  H62  1  0.13850000  0.98900000  0.56840000  1
  H  H63  1  0.30410000  0.48900000  0.06840000  1
  H  H64  1  0.89950000  0.13290000  0.40570000  1
  H  H65  1  0.56190000  0.63290000  0.90570000  1
  H  H66  1  0.08680000  0.79650000  0.72150000  1
  H  H67  1  0.39520000  0.29650000  0.22150000  1
  H  H68  1  0.91320000  0.20350000  0.27850000  1
  H  H69  1  0.60480000  0.70350000  0.77850000  1
  H  H70  1  0.10050000  0.86710000  0.59430000  1
  H  H71  1  0.43810000  0.36710000  0.09430000  1
  H  H72  1  0.86150000  0.01100000  0.43160000  1
  H  H73  1  0.69590000  0.51100000  0.93160000  1
  H  H74  1  0.25510000  0.22050000  0.14710000  1
  H  H75  1  0.37730000  0.72050000  0.64710000  1
  H  H76  1  0.38550000  0.10370000  0.05830000  1
  H  H77  1  0.45250000  0.60370000  0.55830000  1
  H  H78  1  0.34890000  0.06230000  0.96450000  1
  H  H79  1  0.62430000  0.56230000  0.46450000  1
  La  La80  1  0.97276000  0.45185000  0.32831000  1
  La  La81  1  0.24708000  0.95185000  0.82831000  1
  La  La82  1  0.04053000  0.67510000  0.98594000  1
  La  La83  1  0.29843000  0.17510000  0.48594000  1
  La  La84  1  0.95947000  0.32490000  0.01406000  1
  La  La85  1  0.70157000  0.82490000  0.51406000  1
  La  La86  1  0.02724000  0.54815000  0.67169000  1
  La  La87  1  0.75292000  0.04815000  0.17169000  1
  N  N88  1  0.86400000  0.76950000  0.96410000  1
  N  N89  1  0.40240000  0.26950000  0.46410000  1
  N  N90  1  0.15800000  0.93390000  0.74190000  1
  N  N91  1  0.16620000  0.43390000  0.24190000  1
  N  N92  1  0.84200000  0.06610000  0.25810000  1
  N  N93  1  0.83380000  0.56610000  0.75810000  1
  N  N94  1  0.13600000  0.23050000  0.03590000  1
  N  N95  1  0.59760000  0.73050000  0.53590000  1
  O  O96  1  0.80000000  0.57180000  0.38980000  1
  O  O97  1  0.23840000  0.07180000  0.88980000  1
  O  O98  1  0.91170000  0.81240000  0.06840000  1
  O  O99  1  0.20750000  0.31240000  0.56840000  1
  O  O100  1  0.01010000  0.54810000  0.20330000  1
  O  O101  1  0.23850000  0.04810000  0.70330000  1
  O  O102  1  0.10760000  0.34980000  0.38280000  1
  O  O103  1  0.15980000  0.84980000  0.88280000  1
  O  O104  1  0.11400000  0.59070000  0.09110000  1
  O  O105  1  0.20420000  0.09070000  0.59110000  1
  O  O106  1  0.07630000  0.77820000  0.87240000  1
  O  O107  1  0.27310000  0.27820000  0.37240000  1
  O  O108  1  0.07350000  0.34640000  0.20580000  1
  O  O109  1  0.37430000  0.84640000  0.70580000  1
  O  O110  1  0.01160000  0.63250000  0.87330000  1
  O  O111  1  0.48260000  0.13250000  0.37330000  1
  O  O112  1  0.98840000  0.36750000  0.12670000  1
  O  O113  1  0.51740000  0.86750000  0.62670000  1
  O  O114  1  0.92650000  0.65360000  0.79420000  1
  O  O115  1  0.62570000  0.15360000  0.29420000  1
  O  O116  1  0.92370000  0.22180000  0.12760000  1
  O  O117  1  0.72690000  0.72180000  0.62760000  1
  O  O118  1  0.88600000  0.40930000  0.90890000  1
  O  O119  1  0.79580000  0.90930000  0.40890000  1
  O  O120  1  0.89240000  0.65020000  0.61720000  1
  O  O121  1  0.84020000  0.15020000  0.11720000  1
  O  O122  1  0.98990000  0.45190000  0.79670000  1
  O  O123  1  0.76150000  0.95190000  0.29670000  1
  O  O124  1  0.08830000  0.18760000  0.93160000  1
  O  O125  1  0.79250000  0.68760000  0.43160000  1
  O  O126  1  0.20000000  0.42820000  0.61020000  1
  O  O127  1  0.76160000  0.92820000  0.11020000  1
