# generated using pymatgen
data_MgH3(CO2)3
_symmetry_space_group_name_H-M   'P 1'
_cell_length_a   7.38290000
_cell_length_b   7.89990000
_cell_length_c   13.75050000
_cell_angle_alpha   90.00000000
_cell_angle_beta   90.00000000
_cell_angle_gamma   90.00000000
_symmetry_Int_Tables_number   1
_chemical_formula_structural   MgH3(CO2)3
_chemical_formula_sum   'Mg4 H12 C12 O24'
_cell_volume   801.98652310
_cell_formula_units_Z   4
loop_
 _symmetry_equiv_pos_site_id
 _symmetry_equiv_pos_as_xyz
  1  'x, y, z'
loop_
 _atom_site_type_symbol
 _atom_site_label
 _atom_site_symmetry_multiplicity
 _atom_site_fract_x
 _atom_site_fract_y
 _atom_site_fract_z
 _atom_site_occupancy
  Mg  Mg0  1  0.26001000  0.22098000  0.16484000  1
  Mg  Mg1  1  0.76001000  0.27902000  0.83516000  1
  Mg  Mg2  1  0.73999000  0.72098000  0.33516000  1
  Mg  Mg3  1  0.23999000  0.77902000  0.66484000  1
  H  H4  1  0.50770000  0.00590000  0.27420000  1
  H  H5  1  0.52630000  0.06010000  0.70170000  1
  H  H6  1  0.48310000  0.18920000  0.98690000  1
  H  H7  1  0.98310000  0.31080000  0.01310000  1
  H  H8  1  0.02630000  0.43990000  0.29830000  1
  H  H9  1  0.00770000  0.49410000  0.72580000  1
  H  H10  1  0.49230000  0.50590000  0.22580000  1
  H  H11  1  0.47370000  0.56010000  0.79830000  1
  H  H12  1  0.51690000  0.68920000  0.51310000  1
  H  H13  1  0.01690000  0.81080000  0.48690000  1
  H  H14  1  0.97370000  0.93990000  0.20170000  1
  H  H15  1  0.99230000  0.99410000  0.77420000  1
  C  C16  1  0.50470000  0.01279000  0.76418000  1
  C  C17  1  0.99220000  0.05587000  0.71491000  1
  C  C18  1  0.00550000  0.19567000  0.99715000  1
  C  C19  1  0.50550000  0.30433000  0.00285000  1
  C  C20  1  0.49220000  0.44413000  0.28509000  1
  C  C21  1  0.00470000  0.48721000  0.23582000  1
  C  C22  1  0.49530000  0.51279000  0.73582000  1
  C  C23  1  0.00780000  0.55587000  0.78509000  1
  C  C24  1  0.99450000  0.69567000  0.50285000  1
  C  C25  1  0.49450000  0.80433000  0.49715000  1
  C  C26  1  0.50780000  0.94413000  0.21491000  1
  C  C27  1  0.99530000  0.98721000  0.26418000  1
  O  O28  1  0.42058000  0.00494000  0.14625000  1
  O  O29  1  0.59239000  0.07224000  0.83370000  1
  O  O30  1  0.10864000  0.10328000  0.26967000  1
  O  O31  1  0.11992000  0.11756000  0.04786000  1
  O  O32  1  0.91934000  0.13469000  0.92785000  1
  O  O33  1  0.90332000  0.19213000  0.71333000  1
  O  O34  1  0.40332000  0.30787000  0.28667000  1
  O  O35  1  0.41934000  0.36531000  0.07215000  1
  O  O36  1  0.61992000  0.38244000  0.95214000  1
  O  O37  1  0.60864000  0.39672000  0.73033000  1
  O  O38  1  0.09239000  0.42776000  0.16630000  1
  O  O39  1  0.92058000  0.49506000  0.85375000  1
  O  O40  1  0.57942000  0.50494000  0.35375000  1
  O  O41  1  0.40761000  0.57224000  0.66630000  1
  O  O42  1  0.89136000  0.60328000  0.23033000  1
  O  O43  1  0.88008000  0.61756000  0.45214000  1
  O  O44  1  0.08066000  0.63469000  0.57215000  1
  O  O45  1  0.09668000  0.69213000  0.78667000  1
  O  O46  1  0.59668000  0.80787000  0.21333000  1
  O  O47  1  0.58066000  0.86531000  0.42785000  1
  O  O48  1  0.38008000  0.88244000  0.54786000  1
  O  O49  1  0.39136000  0.89672000  0.76967000  1
  O  O50  1  0.90761000  0.92776000  0.33370000  1
  O  O51  1  0.07942000  0.99506000  0.64625000  1
