# generated using pymatgen
data_Gd2CoH8(C6O5)4
_symmetry_space_group_name_H-M   'P 1'
_cell_length_a   10.76080000
_cell_length_b   11.63510000
_cell_length_c   16.85380000
_cell_angle_alpha   84.96620000
_cell_angle_beta   79.06210000
_cell_angle_gamma   62.45610000
_symmetry_Int_Tables_number   1
_chemical_formula_structural   Gd2CoH8(C6O5)4
_chemical_formula_sum   'Gd4 Co2 H16 C48 O40'
_cell_volume   1836.98607560
_cell_formula_units_Z   2
loop_
 _symmetry_equiv_pos_site_id
 _symmetry_equiv_pos_as_xyz
  1  'x, y, z'
loop_
 _atom_site_type_symbol
 _atom_site_label
 _atom_site_symmetry_multiplicity
 _atom_site_fract_x
 _atom_site_fract_y
 _atom_site_fract_z
 _atom_site_occupancy
  Gd  Gd0  1  0.08505000  0.17086000  0.44857000  1
  Gd  Gd1  1  0.25591000  0.82914000  0.94857000  1
  Gd  Gd2  1  0.74409000  0.17086000  0.05143000  1
  Gd  Gd3  1  0.91495000  0.82914000  0.55143000  1
  Co  Co4  1  0.00000000  0.50000000  0.50000000  1
  Co  Co5  1  0.50000000  0.50000000  0.00000000  1
  H  H6  1  0.02660000  0.58580000  0.93100000  1
  H  H7  1  0.16830000  0.47200000  0.07880000  1
  H  H8  1  0.21840000  0.46300000  0.32630000  1
  H  H9  1  0.29800000  0.28700000  0.69100000  1
  H  H10  1  0.31860000  0.46300000  0.17370000  1
  H  H11  1  0.35970000  0.47200000  0.42120000  1
  H  H12  1  0.38760000  0.58580000  0.56900000  1
  H  H13  1  0.41500000  0.28700000  0.80900000  1
  H  H14  1  0.58500000  0.71300000  0.19100000  1
  H  H15  1  0.61240000  0.41420000  0.43100000  1
  H  H16  1  0.64030000  0.52800000  0.57880000  1
  H  H17  1  0.68140000  0.53700000  0.82630000  1
  H  H18  1  0.70200000  0.71300000  0.30900000  1
  H  H19  1  0.78160000  0.53700000  0.67370000  1
  H  H20  1  0.83170000  0.52800000  0.92120000  1
  H  H21  1  0.97340000  0.41420000  0.06900000  1
  C  C22  1  0.04830000  0.72260000  0.39270000  1
  C  C23  1  0.07070000  0.36220000  0.05420000  1
  C  C24  1  0.08320000  0.14880000  0.00770000  1
  C  C25  1  0.10570000  0.54660000  0.64080000  1
  C  C26  1  0.12730000  0.66040000  0.31500000  1
  C  C27  1  0.13510000  0.24040000  0.02340000  1
  C  C28  1  0.17980000  0.39480000  0.05920000  1
  C  C29  1  0.20340000  0.48440000  0.70120000  1
  C  C30  1  0.20420000  0.53480000  0.29330000  1
  C  C31  1  0.21230000  0.66040000  0.18500000  1
  C  C32  1  0.22910000  0.72260000  0.10730000  1
  C  C33  1  0.23200000  0.85120000  0.50770000  1
  C  C34  1  0.26100000  0.53480000  0.20670000  1
  C  C35  1  0.28590000  0.26200000  0.47250000  1
  C  C36  1  0.28670000  0.35920000  0.71730000  1
  C  C37  1  0.30310000  0.29380000  0.03060000  1
  C  C38  1  0.31220000  0.48440000  0.79880000  1
  C  C39  1  0.34770000  0.54660000  0.85920000  1
  C  C40  1  0.35410000  0.35920000  0.78270000  1
  C  C41  1  0.37550000  0.75960000  0.52340000  1
  C  C42  1  0.40310000  0.29380000  0.46940000  1
  C  C43  1  0.42540000  0.39480000  0.44080000  1
  C  C44  1  0.43290000  0.63780000  0.55420000  1
  C  C45  1  0.45210000  0.26200000  0.02750000  1
  C  C46  1  0.54790000  0.73800000  0.97250000  1
  C  C47  1  0.56710000  0.36220000  0.44580000  1
  C  C48  1  0.57460000  0.60520000  0.55920000  1
  C  C49  1  0.59690000  0.70620000  0.53060000  1
  C  C50  1  0.62450000  0.24040000  0.47660000  1
  C  C51  1  0.64590000  0.64080000  0.21730000  1
  C  C52  1  0.65230000  0.45340000  0.14080000  1
  C  C53  1  0.68780000  0.51560000  0.20120000  1
  C  C54  1  0.69690000  0.70620000  0.96940000  1
  C  C55  1  0.71330000  0.64080000  0.28270000  1
  C  C56  1  0.71410000  0.73800000  0.52750000  1
  C  C57  1  0.73900000  0.46520000  0.79330000  1
  C  C58  1  0.76800000  0.14880000  0.49230000  1
  C  C59  1  0.77090000  0.27740000  0.89270000  1
  C  C60  1  0.78770000  0.33960000  0.81500000  1
  C  C61  1  0.79580000  0.46520000  0.70670000  1
  C  C62  1  0.79660000  0.51560000  0.29880000  1
  C  C63  1  0.82020000  0.60520000  0.94080000  1
  C  C64  1  0.86490000  0.75960000  0.97660000  1
  C  C65  1  0.87270000  0.33960000  0.68500000  1
  C  C66  1  0.89430000  0.45340000  0.35920000  1
  C  C67  1  0.91680000  0.85120000  0.99230000  1
  C  C68  1  0.92930000  0.63780000  0.94580000  1
  C  C69  1  0.95170000  0.27740000  0.60730000  1
  O  O70  1  0.01720000  0.15780000  0.60060000  1
  O  O71  1  0.03510000  0.66760000  0.64220000  1
  O  O72  1  0.04920000  0.80900000  0.97590000  1
  O  O73  1  0.05340000  0.64900000  0.45400000  1
  O  O74  1  0.10490000  0.46880000  0.59400000  1
  O  O75  1  0.12970000  0.74060000  0.25000000  1
  O  O76  1  0.14180000  0.80900000  0.52410000  1
  O  O77  1  0.16930000  0.04320000  0.97910000  1
  O  O78  1  0.17500000  0.84220000  0.10060000  1
  O  O79  1  0.17810000  0.34380000  0.44040000  1
  O  O80  1  0.21250000  0.95680000  0.47910000  1
  O  O81  1  0.21830000  0.56340000  0.75000000  1
  O  O82  1  0.27890000  0.19600000  0.00830000  1
  O  O83  1  0.28870000  0.16000000  0.50360000  1
  O  O84  1  0.29730000  0.66760000  0.85780000  1
  O  O85  1  0.29760000  0.64900000  0.04600000  1
  O  O86  1  0.42630000  0.46880000  0.90600000  1
  O  O87  1  0.44870000  0.84000000  0.00360000  1
  O  O88  1  0.47490000  0.80400000  0.50830000  1
  O  O89  1  0.47810000  0.34380000  0.05960000  1
  O  O90  1  0.52190000  0.65620000  0.94040000  1
  O  O91  1  0.52510000  0.19600000  0.49170000  1
  O  O92  1  0.55130000  0.16000000  0.99640000  1
  O  O93  1  0.57370000  0.53120000  0.09400000  1
  O  O94  1  0.70240000  0.35100000  0.95400000  1
  O  O95  1  0.70270000  0.33240000  0.14220000  1
  O  O96  1  0.71130000  0.84000000  0.49640000  1
  O  O97  1  0.72110000  0.80400000  0.99170000  1
  O  O98  1  0.78170000  0.43660000  0.25000000  1
  O  O99  1  0.78750000  0.04320000  0.52090000  1
  O  O100  1  0.82190000  0.65620000  0.55960000  1
  O  O101  1  0.82500000  0.15780000  0.89940000  1
  O  O102  1  0.83070000  0.95680000  0.02090000  1
  O  O103  1  0.85820000  0.19100000  0.47590000  1
  O  O104  1  0.87030000  0.25940000  0.75000000  1
  O  O105  1  0.89510000  0.53120000  0.40600000  1
  O  O106  1  0.94660000  0.35100000  0.54600000  1
  O  O107  1  0.95080000  0.19100000  0.02410000  1
  O  O108  1  0.96490000  0.33240000  0.35780000  1
  O  O109  1  0.98280000  0.84220000  0.39940000  1
