# generated using pymatgen
data_CuH4C9NO5
_symmetry_space_group_name_H-M   'P 1'
_cell_length_a   18.66270000
_cell_length_b   27.91610000
_cell_length_c   32.36430000
_cell_angle_alpha   112.65500000
_cell_angle_beta   90.00000000
_cell_angle_gamma   90.00000000
_symmetry_Int_Tables_number   1
_chemical_formula_structural   CuH4C9NO5
_chemical_formula_sum   'Cu24 H96 C216 N24 O120'
_cell_volume   15560.45421634
_cell_formula_units_Z   24
loop_
 _symmetry_equiv_pos_site_id
 _symmetry_equiv_pos_as_xyz
  1  'x, y, z'
loop_
 _atom_site_type_symbol
 _atom_site_label
 _atom_site_symmetry_multiplicity
 _atom_site_fract_x
 _atom_site_fract_y
 _atom_site_fract_z
 _atom_site_occupancy
  Cu  Cu0  1  0.00197000  0.20176000  0.23041000  1
  Cu  Cu1  1  0.00715000  0.28716000  0.30476000  1
  Cu  Cu2  1  0.18589000  0.20974000  0.00486000  1
  Cu  Cu3  1  0.19087000  0.70301000  0.46817000  1
  Cu  Cu4  1  0.23832000  0.78963000  0.97474000  1
  Cu  Cu5  1  0.24459000  0.29473000  0.50960000  1
  Cu  Cu6  1  0.25541000  0.29473000  0.00960000  1
  Cu  Cu7  1  0.26168000  0.78963000  0.47474000  1
  Cu  Cu8  1  0.30913000  0.70301000  0.96817000  1
  Cu  Cu9  1  0.31411000  0.20974000  0.50486000  1
  Cu  Cu10  1  0.49285000  0.28716000  0.80476000  1
  Cu  Cu11  1  0.49803000  0.20176000  0.73041000  1
  Cu  Cu12  1  0.50197000  0.79824000  0.26959000  1
  Cu  Cu13  1  0.50715000  0.71284000  0.19524000  1
  Cu  Cu14  1  0.68589000  0.79026000  0.49514000  1
  Cu  Cu15  1  0.69087000  0.29699000  0.03183000  1
  Cu  Cu16  1  0.73832000  0.21037000  0.52526000  1
  Cu  Cu17  1  0.74459000  0.70527000  0.99040000  1
  Cu  Cu18  1  0.75541000  0.70527000  0.49040000  1
  Cu  Cu19  1  0.76168000  0.21037000  0.02526000  1
  Cu  Cu20  1  0.80913000  0.29699000  0.53183000  1
  Cu  Cu21  1  0.81411000  0.79026000  0.99514000  1
  Cu  Cu22  1  0.99285000  0.71284000  0.69524000  1
  Cu  Cu23  1  0.99803000  0.79824000  0.76959000  1
  H  H24  1  0.02740000  0.73900000  0.99390000  1
  H  H25  1  0.02810000  0.25200000  0.53270000  1
  H  H26  1  0.07310000  0.05370000  0.53490000  1
  H  H27  1  0.07640000  0.87570000  0.46680000  1
  H  H28  1  0.07740000  0.38390000  0.99610000  1
  H  H29  1  0.08100000  0.54200000  0.99220000  1
  H  H30  1  0.12680000  0.75740000  0.60820000  1
  H  H31  1  0.13490000  0.25290000  0.14450000  1
  H  H32  1  0.13950000  0.38000000  0.26000000  1
  H  H33  1  0.14010000  0.61120000  0.98800000  1
  H  H34  1  0.14070000  0.12310000  0.51940000  1
  H  H35  1  0.14500000  0.88430000  0.72450000  1
  H  H36  1  0.15850000  0.75020000  0.84200000  1
  H  H37  1  0.16810000  0.62860000  0.72150000  1
  H  H38  1  0.17150000  0.24400000  0.37460000  1
  H  H39  1  0.17340000  0.11580000  0.25920000  1
  H  H40  1  0.19350000  0.05440000  0.79620000  1
  H  H41  1  0.20270000  0.12160000  0.86420000  1
  H  H42  1  0.20670000  0.45260000  0.26270000  1
  H  H43  1  0.21610000  0.62440000  0.32620000  1
  H  H44  1  0.23390000  0.38360000  0.14840000  1
  H  H45  1  0.23530000  0.94860000  0.17990000  1
  H  H46  1  0.24620000  0.55810000  0.71310000  1
  H  H47  1  0.24640000  0.87940000  0.61200000  1
  H  H48  1  0.25360000  0.87940000  0.11200000  1
  H  H49  1  0.25380000  0.55810000  0.21310000  1
  H  H50  1  0.26470000  0.94860000  0.67990000  1
  H  H51  1  0.26610000  0.38360000  0.64840000  1
  H  H52  1  0.28390000  0.62440000  0.82620000  1
  H  H53  1  0.29330000  0.45260000  0.76270000  1
  H  H54  1  0.29730000  0.12160000  0.36420000  1
  H  H55  1  0.30650000  0.05440000  0.29620000  1
  H  H56  1  0.32660000  0.11580000  0.75920000  1
  H  H57  1  0.32850000  0.24400000  0.87460000  1
  H  H58  1  0.33190000  0.62860000  0.22150000  1
  H  H59  1  0.34150000  0.75020000  0.34200000  1
  H  H60  1  0.35500000  0.88430000  0.22450000  1
  H  H61  1  0.35930000  0.12310000  0.01940000  1
  H  H62  1  0.35990000  0.61120000  0.48800000  1
  H  H63  1  0.36050000  0.38000000  0.76000000  1
  H  H64  1  0.36510000  0.25290000  0.64450000  1
  H  H65  1  0.37320000  0.75740000  0.10820000  1
  H  H66  1  0.41900000  0.54200000  0.49220000  1
  H  H67  1  0.42260000  0.38390000  0.49610000  1
  H  H68  1  0.42360000  0.87570000  0.96680000  1
  H  H69  1  0.42690000  0.05370000  0.03490000  1
  H  H70  1  0.47190000  0.25200000  0.03270000  1
  H  H71  1  0.47260000  0.73900000  0.49390000  1
  H  H72  1  0.52740000  0.26100000  0.50610000  1
  H  H73  1  0.52810000  0.74800000  0.96730000  1
  H  H74  1  0.57310000  0.94630000  0.96510000  1
  H  H75  1  0.57640000  0.12430000  0.03320000  1
  H  H76  1  0.57740000  0.61610000  0.50390000  1
  H  H77  1  0.58100000  0.45800000  0.50780000  1
  H  H78  1  0.62680000  0.24260000  0.89180000  1
  H  H79  1  0.63490000  0.74710000  0.35550000  1
  H  H80  1  0.63950000  0.62000000  0.24000000  1
  H  H81  1  0.64010000  0.38880000  0.51200000  1
  H  H82  1  0.64070000  0.87690000  0.98060000  1
  H  H83  1  0.64500000  0.11570000  0.77550000  1
  H  H84  1  0.65850000  0.24980000  0.65800000  1
  H  H85  1  0.66810000  0.37140000  0.77850000  1
  H  H86  1  0.67150000  0.75600000  0.12540000  1
  H  H87  1  0.67340000  0.88420000  0.24080000  1
  H  H88  1  0.69350000  0.94560000  0.70380000  1
  H  H89  1  0.70270000  0.87840000  0.63580000  1
  H  H90  1  0.70670000  0.54740000  0.23730000  1
  H  H91  1  0.71610000  0.37560000  0.17380000  1
  H  H92  1  0.73390000  0.61640000  0.35160000  1
  H  H93  1  0.73530000  0.05140000  0.32010000  1
  H  H94  1  0.74620000  0.44190000  0.78690000  1
  H  H95  1  0.74640000  0.12060000  0.88800000  1
  H  H96  1  0.75360000  0.12060000  0.38800000  1
  H  H97  1  0.75380000  0.44190000  0.28690000  1
  H  H98  1  0.76470000  0.05140000  0.82010000  1
  H  H99  1  0.76610000  0.61640000  0.85160000  1
  H  H100  1  0.78390000  0.37560000  0.67380000  1
  H  H101  1  0.79330000  0.54740000  0.73730000  1
  H  H102  1  0.79730000  0.87840000  0.13580000  1
  H  H103  1  0.80650000  0.94560000  0.20380000  1
  H  H104  1  0.82660000  0.88420000  0.74080000  1
  H  H105  1  0.82850000  0.75600000  0.62540000  1
  H  H106  1  0.83190000  0.37140000  0.27850000  1
  H  H107  1  0.84150000  0.24980000  0.15800000  1
  H  H108  1  0.85500000  0.11570000  0.27550000  1
  H  H109  1  0.85930000  0.87690000  0.48060000  1
  H  H110  1  0.85990000  0.38880000  0.01200000  1
  H  H111  1  0.86050000  0.62000000  0.74000000  1
  H  H112  1  0.86510000  0.74710000  0.85550000  1
  H  H113  1  0.87320000  0.24260000  0.39180000  1
  H  H114  1  0.91900000  0.45800000  0.00780000  1
  H  H115  1  0.92260000  0.61610000  0.00390000  1
  H  H116  1  0.92360000  0.12430000  0.53320000  1
  H  H117  1  0.92690000  0.94630000  0.46510000  1
  H  H118  1  0.97190000  0.74800000  0.46730000  1
  H  H119  1  0.97260000  0.26100000  0.00610000  1
  C  C120  1  0.01190000  0.47350000  0.99850000  1
  C  C121  1  0.01290000  0.97420000  0.50060000  1
  C  C122  1  0.02870000  0.21710000  0.53070000  1
  C  C123  1  0.02920000  0.70530000  0.99460000  1
  C  C124  1  0.03290000  0.60670000  0.99740000  1
  C  C125  1  0.03320000  0.31900000  0.00000000  1
  C  C126  1  0.03320000  0.85860000  0.46860000  1
  C  C127  1  0.03330000  0.11600000  0.52690000  1
  C  C128  1  0.03380000  0.36780000  0.99910000  1
  C  C129  1  0.03420000  0.80770000  0.46680000  1
  C  C130  1  0.07930000  0.79310000  0.69242000  1
  C  C131  1  0.08720000  0.28580000  0.23007000  1
  C  C132  1  0.09250000  0.19030000  0.52510000  1
  C  C133  1  0.09380000  0.67980000  0.99020000  1
  C  C134  1  0.09590000  0.62920000  0.99130000  1
  C  C135  1  0.09600000  0.14050000  0.52320000  1
  C  C136  1  0.09720000  0.71846000  0.76160000  1
  C  C137  1  0.10390000  0.29190000  0.99876000  1
  C  C138  1  0.10510000  0.78210000  0.46339000  1
  C  C139  1  0.10710000  0.20650000  0.29553000  1
  C  C140  1  0.12970000  0.81750000  0.66941000  1
  C  C141  1  0.13030000  0.31230000  0.20610000  1
  C  C142  1  0.14620000  0.79090000  0.62447000  1
  C  C143  1  0.14760000  0.28820000  0.16053000  1
  C  C144  1  0.15050000  0.36320000  0.22900000  1
  C  C145  1  0.15160000  0.69320000  0.77944000  1
  C  C146  1  0.15660000  0.86670000  0.69373000  1
  C  C147  1  0.16140000  0.21540000  0.51960000  1
  C  C148  1  0.16210000  0.70300000  0.98230000  1
  C  C149  1  0.16450000  0.18280000  0.31347000  1
  C  C150  1  0.17550000  0.71650000  0.82383000  1
  C  C151  1  0.18030000  0.64380000  0.75233000  1
  C  C152  1  0.18250000  0.31480000  0.13880000  1
  C  C153  1  0.18610000  0.38980000  0.20770000  1
  C  C154  1  0.18830000  0.20980000  0.35772000  1
  C  C155  1  0.19030000  0.13410000  0.28880000  1
  C  C156  1  0.19110000  0.81390000  0.60403000  1
  C  C157  1  0.19800000  0.29000000  0.08996000  1
  C  C158  1  0.20150000  0.88990000  0.67180000  1
  C  C159  1  0.20580000  0.36580000  0.16250000  1
  C  C160  1  0.20760000  0.78720000  0.55472000  1
  C  C161  1  0.20830000  0.97590000  0.73140000  1
  C  C162  1  0.21720000  0.86340000  0.62710000  1
  C  C163  1  0.22020000  0.47790000  0.21800000  1
  C  C164  1  0.22230000  0.69240000  0.84170000  1
  C  C165  1  0.22430000  0.61850000  0.76980000  1
  C  C166  1  0.23570000  0.18640000  0.37616000  1
  C  C167  1  0.23650000  0.13720000  0.85120000  1
  C  C168  1  0.23700000  0.53180000  0.25560000  1
  C  C169  1  0.24130000  0.11150000  0.30720000  1
  C  C170  1  0.24370000  0.21350000  0.92525000  1
  C  C171  1  0.24470000  0.71410000  0.88920000  1
  C  C172  1  0.24800000  0.02500000  0.24520000  1
  C  C173  1  0.24980000  0.64160000  0.31470000  1
  C  C174  1  0.25020000  0.64160000  0.81470000  1
  C  C175  1  0.25200000  0.02500000  0.74520000  1
  C  C176  1  0.25530000  0.71410000  0.38920000  1
  C  C177  1  0.25630000  0.21350000  0.42525000  1
  C  C178  1  0.25870000  0.11150000  0.80720000  1
  C  C179  1  0.26300000  0.53180000  0.75560000  1
  C  C180  1  0.26350000  0.13720000  0.35120000  1
  C  C181  1  0.26430000  0.18640000  0.87616000  1
  C  C182  1  0.27570000  0.61850000  0.26980000  1
  C  C183  1  0.27770000  0.69240000  0.34170000  1
  C  C184  1  0.27980000  0.47790000  0.71800000  1
  C  C185  1  0.28280000  0.86340000  0.12710000  1
  C  C186  1  0.29170000  0.97590000  0.23140000  1
  C  C187  1  0.29240000  0.78720000  0.05472000  1
  C  C188  1  0.29420000  0.36580000  0.66250000  1
  C  C189  1  0.29850000  0.88990000  0.17180000  1
  C  C190  1  0.30200000  0.29000000  0.58996000  1
  C  C191  1  0.30890000  0.81390000  0.10403000  1
  C  C192  1  0.30970000  0.13410000  0.78880000  1
  C  C193  1  0.31170000  0.20980000  0.85772000  1
  C  C194  1  0.31390000  0.38980000  0.70770000  1
  C  C195  1  0.31750000  0.31480000  0.63880000  1
  C  C196  1  0.31970000  0.64380000  0.25233000  1
  C  C197  1  0.32450000  0.71650000  0.32383000  1
  C  C198  1  0.33550000  0.18280000  0.81347000  1
  C  C199  1  0.33790000  0.70300000  0.48230000  1
  C  C200  1  0.33860000  0.21540000  0.01960000  1
  C  C201  1  0.34340000  0.86670000  0.19373000  1
  C  C202  1  0.34840000  0.69320000  0.27944000  1
  C  C203  1  0.34950000  0.36320000  0.72900000  1
  C  C204  1  0.35240000  0.28820000  0.66053000  1
  C  C205  1  0.35380000  0.79090000  0.12447000  1
  C  C206  1  0.36970000  0.31230000  0.70610000  1
  C  C207  1  0.37030000  0.81750000  0.16941000  1
  C  C208  1  0.39290000  0.20650000  0.79553000  1
  C  C209  1  0.39490000  0.78210000  0.96339000  1
  C  C210  1  0.39610000  0.29190000  0.49876000  1
  C  C211  1  0.40280000  0.71846000  0.26160000  1
  C  C212  1  0.40400000  0.14050000  0.02320000  1
  C  C213  1  0.40410000  0.62920000  0.49130000  1
  C  C214  1  0.40620000  0.67980000  0.49020000  1
  C  C215  1  0.40750000  0.19030000  0.02510000  1
  C  C216  1  0.41280000  0.28580000  0.73007000  1
  C  C217  1  0.42070000  0.79310000  0.19242000  1
  C  C218  1  0.46580000  0.80770000  0.96680000  1
  C  C219  1  0.46620000  0.36780000  0.49910000  1
  C  C220  1  0.46670000  0.11600000  0.02690000  1
  C  C221  1  0.46680000  0.31900000  0.50000000  1
  C  C222  1  0.46680000  0.85860000  0.96860000  1
  C  C223  1  0.46710000  0.60670000  0.49740000  1
  C  C224  1  0.47080000  0.70530000  0.49460000  1
  C  C225  1  0.47130000  0.21710000  0.03070000  1
  C  C226  1  0.48710000  0.97420000  0.00060000  1
  C  C227  1  0.48810000  0.47350000  0.49850000  1
  C  C228  1  0.51190000  0.52650000  0.50150000  1
  C  C229  1  0.51290000  0.02580000  0.99940000  1
  C  C230  1  0.52870000  0.78290000  0.96930000  1
  C  C231  1  0.52920000  0.29470000  0.50540000  1
  C  C232  1  0.53290000  0.39330000  0.50260000  1
  C  C233  1  0.53320000  0.14140000  0.03140000  1
  C  C234  1  0.53320000  0.68100000  0.50000000  1
  C  C235  1  0.53330000  0.88400000  0.97310000  1
  C  C236  1  0.53380000  0.63220000  0.50090000  1
  C  C237  1  0.53420000  0.19230000  0.03320000  1
  C  C238  1  0.57930000  0.20690000  0.80758000  1
  C  C239  1  0.58720000  0.71420000  0.26993000  1
  C  C240  1  0.59250000  0.80970000  0.97490000  1
  C  C241  1  0.59380000  0.32020000  0.50980000  1
  C  C242  1  0.59590000  0.37080000  0.50870000  1
  C  C243  1  0.59600000  0.85950000  0.97680000  1
  C  C244  1  0.59720000  0.28154000  0.73840000  1
  C  C245  1  0.60390000  0.70810000  0.50124000  1
  C  C246  1  0.60510000  0.21790000  0.03661000  1
  C  C247  1  0.60710000  0.79350000  0.20447000  1
  C  C248  1  0.62970000  0.18250000  0.83059000  1
  C  C249  1  0.63030000  0.68770000  0.29390000  1
  C  C250  1  0.64620000  0.20910000  0.87553000  1
  C  C251  1  0.64760000  0.71180000  0.33947000  1
  C  C252  1  0.65050000  0.63680000  0.27100000  1
  C  C253  1  0.65160000  0.30680000  0.72056000  1
  C  C254  1  0.65660000  0.13330000  0.80627000  1
  C  C255  1  0.66140000  0.78460000  0.98040000  1
  C  C256  1  0.66210000  0.29700000  0.51770000  1
  C  C257  1  0.66450000  0.81720000  0.18653000  1
  C  C258  1  0.67550000  0.28350000  0.67617000  1
  C  C259  1  0.68030000  0.35620000  0.74767000  1
  C  C260  1  0.68250000  0.68520000  0.36120000  1
  C  C261  1  0.68610000  0.61020000  0.29230000  1
  C  C262  1  0.68830000  0.79020000  0.14228000  1
  C  C263  1  0.69030000  0.86590000  0.21120000  1
  C  C264  1  0.69110000  0.18610000  0.89597000  1
  C  C265  1  0.69800000  0.71000000  0.41004000  1
  C  C266  1  0.70150000  0.11010000  0.82820000  1
  C  C267  1  0.70580000  0.63420000  0.33750000  1
  C  C268  1  0.70760000  0.21280000  0.94528000  1
  C  C269  1  0.70830000  0.02410000  0.76860000  1
  C  C270  1  0.71720000  0.13660000  0.87290000  1
  C  C271  1  0.72020000  0.52210000  0.28200000  1
  C  C272  1  0.72230000  0.30760000  0.65830000  1
  C  C273  1  0.72430000  0.38150000  0.73020000  1
  C  C274  1  0.73570000  0.81360000  0.12384000  1
  C  C275  1  0.73650000  0.86280000  0.64880000  1
  C  C276  1  0.73700000  0.46820000  0.24440000  1
  C  C277  1  0.74130000  0.88850000  0.19280000  1
  C  C278  1  0.74370000  0.78650000  0.57475000  1
  C  C279  1  0.74470000  0.28590000  0.61080000  1
  C  C280  1  0.74800000  0.97500000  0.25480000  1
  C  C281  1  0.74980000  0.35840000  0.18530000  1
  C  C282  1  0.75020000  0.35840000  0.68530000  1
  C  C283  1  0.75200000  0.97500000  0.75480000  1
  C  C284  1  0.75530000  0.28590000  0.11080000  1
  C  C285  1  0.75630000  0.78650000  0.07475000  1
  C  C286  1  0.75870000  0.88850000  0.69280000  1
  C  C287  1  0.76300000  0.46820000  0.74440000  1
  C  C288  1  0.76350000  0.86280000  0.14880000  1
  C  C289  1  0.76430000  0.81360000  0.62384000  1
  C  C290  1  0.77570000  0.38150000  0.23020000  1
  C  C291  1  0.77770000  0.30760000  0.15830000  1
  C  C292  1  0.77980000  0.52210000  0.78200000  1
  C  C293  1  0.78280000  0.13660000  0.37290000  1
  C  C294  1  0.79170000  0.02410000  0.26860000  1
  C  C295  1  0.79240000  0.21280000  0.44528000  1
  C  C296  1  0.79420000  0.63420000  0.83750000  1
  C  C297  1  0.79850000  0.11010000  0.32820000  1
  C  C298  1  0.80200000  0.71000000  0.91004000  1
  C  C299  1  0.80890000  0.18610000  0.39597000  1
  C  C300  1  0.80970000  0.86590000  0.71120000  1
  C  C301  1  0.81170000  0.79020000  0.64228000  1
  C  C302  1  0.81390000  0.61020000  0.79230000  1
  C  C303  1  0.81750000  0.68520000  0.86120000  1
  C  C304  1  0.81970000  0.35620000  0.24767000  1
  C  C305  1  0.82450000  0.28350000  0.17617000  1
  C  C306  1  0.83550000  0.81720000  0.68653000  1
  C  C307  1  0.83790000  0.29700000  0.01770000  1
  C  C308  1  0.83860000  0.78460000  0.48040000  1
  C  C309  1  0.84340000  0.13330000  0.30627000  1
  C  C310  1  0.84840000  0.30680000  0.22056000  1
  C  C311  1  0.84950000  0.63680000  0.77100000  1
  C  C312  1  0.85240000  0.71180000  0.83947000  1
  C  C313  1  0.85380000  0.20910000  0.37553000  1
  C  C314  1  0.86970000  0.68770000  0.79390000  1
  C  C315  1  0.87030000  0.18250000  0.33059000  1
  C  C316  1  0.89290000  0.79350000  0.70447000  1
  C  C317  1  0.89490000  0.21790000  0.53661000  1
  C  C318  1  0.89610000  0.70810000  0.00124000  1
  C  C319  1  0.90280000  0.28154000  0.23840000  1
  C  C320  1  0.90400000  0.85950000  0.47680000  1
  C  C321  1  0.90410000  0.37080000  0.00870000  1
  C  C322  1  0.90620000  0.32020000  0.00980000  1
  C  C323  1  0.90750000  0.80970000  0.47490000  1
  C  C324  1  0.91280000  0.71420000  0.76993000  1
  C  C325  1  0.92070000  0.20690000  0.30758000  1
  C  C326  1  0.96580000  0.19230000  0.53320000  1
  C  C327  1  0.96620000  0.63220000  0.00090000  1
  C  C328  1  0.96670000  0.88400000  0.47310000  1
  C  C329  1  0.96680000  0.14140000  0.53140000  1
  C  C330  1  0.96680000  0.68100000  0.00000000  1
  C  C331  1  0.96710000  0.39330000  0.00260000  1
  C  C332  1  0.97080000  0.29470000  0.00540000  1
  C  C333  1  0.97130000  0.78290000  0.46930000  1
  C  C334  1  0.98710000  0.02580000  0.49940000  1
  C  C335  1  0.98810000  0.52650000  0.00150000  1
  N  N336  1  0.03680000  0.06310000  0.52230000  1
  N  N337  1  0.03770000  0.55560000  0.99660000  1
  N  N338  1  0.20520000  0.44300000  0.23340000  1
  N  N339  1  0.22900000  0.94010000  0.69350000  1
  N  N340  1  0.23110000  0.06240000  0.78370000  1
  N  N341  1  0.24560000  0.56630000  0.74218000  1
  N  N342  1  0.25440000  0.56630000  0.24218000  1
  N  N343  1  0.26890000  0.06240000  0.28370000  1
  N  N344  1  0.27100000  0.94010000  0.19350000  1
  N  N345  1  0.29480000  0.44300000  0.73340000  1
  N  N346  1  0.46230000  0.55560000  0.49660000  1
  N  N347  1  0.46320000  0.06310000  0.02230000  1
  N  N348  1  0.53680000  0.93690000  0.97770000  1
  N  N349  1  0.53770000  0.44440000  0.50340000  1
  N  N350  1  0.70520000  0.55700000  0.26660000  1
  N  N351  1  0.72900000  0.05990000  0.80650000  1
  N  N352  1  0.73110000  0.93760000  0.71630000  1
  N  N353  1  0.74560000  0.43370000  0.75782000  1
  N  N354  1  0.75440000  0.43370000  0.25782000  1
  N  N355  1  0.76890000  0.93760000  0.21630000  1
  N  N356  1  0.77100000  0.05990000  0.30650000  1
  N  N357  1  0.79480000  0.55700000  0.76660000  1
  N  N358  1  0.96230000  0.44440000  0.00340000  1
  N  N359  1  0.96320000  0.93690000  0.47770000  1
  O  O360  1  0.05630000  0.74925000  0.67002000  1
  O  O361  1  0.06460000  0.81962000  0.73303000  1
  O  O362  1  0.06920000  0.96780000  0.51380000  1
  O  O363  1  0.06970000  0.23921000  0.20696000  1
  O  O364  1  0.06970000  0.31160000  0.26899000  1
  O  O365  1  0.07320000  0.46250000  0.99350000  1
  O  O366  1  0.07460000  0.69269000  0.72273000  1
  O  O367  1  0.07680000  0.76298000  0.78632000  1
  O  O368  1  0.08250000  0.17969000  0.25751000  1
  O  O369  1  0.08830000  0.25249000  0.31891000  1
  O  O370  1  0.10080000  0.24697000  0.99902000  1
  O  O371  1  0.10390000  0.73493000  0.45991000  1
  O  O372  1  0.15700000  0.74740000  0.98098000  1
  O  O373  1  0.15830000  0.26098000  0.52108000  1
  O  O374  1  0.15980000  0.97320000  0.75360000  1
  O  O375  1  0.16010000  0.31726000  0.99927000  1
  O  O376  1  0.16050000  0.80875000  0.46710000  1
  O  O377  1  0.17800000  0.24435000  0.07036000  1
  O  O378  1  0.17980000  0.74394000  0.53359000  1
  O  O379  1  0.20480000  0.18690000  0.94168000  1
  O  O380  1  0.20520000  0.03060000  0.22140000  1
  O  O381  1  0.21770000  0.18758000  0.51309000  1
  O  O382  1  0.21790000  0.67770000  0.97928000  1
  O  O383  1  0.22090000  0.68719000  0.40422000  1
  O  O384  1  0.22130000  0.47380000  0.18040000  1
  O  O385  1  0.22450000  0.76104000  0.91075000  1
  O  O386  1  0.22820000  0.53690000  0.29440000  1
  O  O387  1  0.23090000  0.31716000  0.07280000  1
  O  O388  1  0.23110000  0.25701000  0.44579000  1
  O  O389  1  0.24530000  0.81293000  0.53758000  1
  O  O390  1  0.25470000  0.81293000  0.03758000  1
  O  O391  1  0.26890000  0.25701000  0.94579000  1
  O  O392  1  0.26910000  0.31716000  0.57280000  1
  O  O393  1  0.27180000  0.53690000  0.79440000  1
  O  O394  1  0.27550000  0.76104000  0.41075000  1
  O  O395  1  0.27870000  0.47380000  0.68040000  1
  O  O396  1  0.27910000  0.68719000  0.90422000  1
  O  O397  1  0.28210000  0.67770000  0.47928000  1
  O  O398  1  0.28230000  0.18758000  0.01309000  1
  O  O399  1  0.29480000  0.03060000  0.72140000  1
  O  O400  1  0.29520000  0.18690000  0.44168000  1
  O  O401  1  0.32020000  0.74394000  0.03359000  1
  O  O402  1  0.32200000  0.24435000  0.57036000  1
  O  O403  1  0.33950000  0.80875000  0.96710000  1
  O  O404  1  0.33990000  0.31726000  0.49927000  1
  O  O405  1  0.34020000  0.97320000  0.25360000  1
  O  O406  1  0.34170000  0.26098000  0.02108000  1
  O  O407  1  0.34300000  0.74740000  0.48098000  1
  O  O408  1  0.39610000  0.73493000  0.95991000  1
  O  O409  1  0.39920000  0.24697000  0.49902000  1
  O  O410  1  0.41170000  0.25249000  0.81891000  1
  O  O411  1  0.41750000  0.17969000  0.75751000  1
  O  O412  1  0.42320000  0.76298000  0.28632000  1
  O  O413  1  0.42540000  0.69269000  0.22273000  1
  O  O414  1  0.42680000  0.46250000  0.49350000  1
  O  O415  1  0.43030000  0.23921000  0.70696000  1
  O  O416  1  0.43030000  0.31160000  0.76899000  1
  O  O417  1  0.43080000  0.96780000  0.01380000  1
  O  O418  1  0.43540000  0.81962000  0.23303000  1
  O  O419  1  0.44370000  0.74925000  0.17002000  1
  O  O420  1  0.55630000  0.25075000  0.82998000  1
  O  O421  1  0.56460000  0.18038000  0.76697000  1
  O  O422  1  0.56920000  0.03220000  0.98620000  1
  O  O423  1  0.56970000  0.68840000  0.23101000  1
  O  O424  1  0.56970000  0.76079000  0.29304000  1
  O  O425  1  0.57320000  0.53750000  0.50650000  1
  O  O426  1  0.57460000  0.30731000  0.77727000  1
  O  O427  1  0.57680000  0.23702000  0.71368000  1
  O  O428  1  0.58250000  0.82031000  0.24249000  1
  O  O429  1  0.58830000  0.74751000  0.18109000  1
  O  O430  1  0.60080000  0.75303000  0.50098000  1
  O  O431  1  0.60390000  0.26507000  0.04009000  1
  O  O432  1  0.65700000  0.25260000  0.51902000  1
  O  O433  1  0.65830000  0.73902000  0.97892000  1
  O  O434  1  0.65980000  0.02680000  0.74640000  1
  O  O435  1  0.66010000  0.68274000  0.50073000  1
  O  O436  1  0.66050000  0.19125000  0.03290000  1
  O  O437  1  0.67800000  0.75565000  0.42964000  1
  O  O438  1  0.67980000  0.25606000  0.96641000  1
  O  O439  1  0.70480000  0.81310000  0.55832000  1
  O  O440  1  0.70520000  0.96940000  0.27860000  1
  O  O441  1  0.71770000  0.81242000  0.98691000  1
  O  O442  1  0.71790000  0.32230000  0.52072000  1
  O  O443  1  0.72090000  0.31281000  0.09578000  1
  O  O444  1  0.72130000  0.52620000  0.31960000  1
  O  O445  1  0.72450000  0.23896000  0.58925000  1
  O  O446  1  0.72820000  0.46310000  0.20560000  1
  O  O447  1  0.73090000  0.68284000  0.42720000  1
  O  O448  1  0.73110000  0.74299000  0.05421000  1
  O  O449  1  0.74530000  0.18707000  0.96242000  1
  O  O450  1  0.75470000  0.18707000  0.46242000  1
  O  O451  1  0.76890000  0.74299000  0.55421000  1
  O  O452  1  0.76910000  0.68284000  0.92720000  1
  O  O453  1  0.77180000  0.46310000  0.70560000  1
  O  O454  1  0.77550000  0.23896000  0.08925000  1
  O  O455  1  0.77870000  0.52620000  0.81960000  1
  O  O456  1  0.77910000  0.31281000  0.59578000  1
  O  O457  1  0.78210000  0.32230000  0.02072000  1
  O  O458  1  0.78230000  0.81242000  0.48691000  1
  O  O459  1  0.79480000  0.96940000  0.77860000  1
  O  O460  1  0.79520000  0.81310000  0.05832000  1
  O  O461  1  0.82020000  0.25606000  0.46641000  1
  O  O462  1  0.82200000  0.75565000  0.92964000  1
  O  O463  1  0.83950000  0.19125000  0.53290000  1
  O  O464  1  0.83990000  0.68274000  0.00073000  1
  O  O465  1  0.84020000  0.02680000  0.24640000  1
  O  O466  1  0.84170000  0.73902000  0.47892000  1
  O  O467  1  0.84300000  0.25260000  0.01902000  1
  O  O468  1  0.89610000  0.26507000  0.54009000  1
  O  O469  1  0.89920000  0.75303000  0.00098000  1
  O  O470  1  0.91170000  0.74751000  0.68109000  1
  O  O471  1  0.91750000  0.82031000  0.74249000  1
  O  O472  1  0.92320000  0.23702000  0.21368000  1
  O  O473  1  0.92540000  0.30731000  0.27727000  1
  O  O474  1  0.92680000  0.53750000  0.00650000  1
  O  O475  1  0.93030000  0.68840000  0.73101000  1
  O  O476  1  0.93030000  0.76079000  0.79304000  1
  O  O477  1  0.93080000  0.03220000  0.48620000  1
  O  O478  1  0.93540000  0.18038000  0.26697000  1
  O  O479  1  0.94370000  0.25075000  0.32998000  1
