# generated using pymatgen
data_TbCu4H24C36I4(NO2)3
_symmetry_space_group_name_H-M   'P 1'
_cell_length_a   9.60500000
_cell_length_b   16.76900000
_cell_length_c   21.15500000
_cell_angle_alpha   104.16000000
_cell_angle_beta   100.31000000
_cell_angle_gamma   97.16000000
_symmetry_Int_Tables_number   1
_chemical_formula_structural   TbCu4H24C36I4(NO2)3
_chemical_formula_sum   'Tb2 Cu8 H48 C72 I8 N6 O12'
_cell_volume   3199.42387508
_cell_formula_units_Z   2
loop_
 _symmetry_equiv_pos_site_id
 _symmetry_equiv_pos_as_xyz
  1  'x, y, z'
loop_
 _atom_site_type_symbol
 _atom_site_label
 _atom_site_symmetry_multiplicity
 _atom_site_fract_x
 _atom_site_fract_y
 _atom_site_fract_z
 _atom_site_occupancy
  Tb  Tb0  1  0.27684000  0.51230000  0.99710000  1
  Tb  Tb1  1  0.72316000  0.48770000  0.00290000  1
  Cu  Cu2  1  0.01403000  0.94245000  0.54044000  1
  Cu  Cu3  1  0.03805000  0.18230000  0.40021000  1
  Cu  Cu4  1  0.17965000  0.05506000  0.37757000  1
  Cu  Cu5  1  0.24479000  0.17308000  0.49831000  1
  Cu  Cu6  1  0.75521000  0.82692000  0.50169000  1
  Cu  Cu7  1  0.82035000  0.94494000  0.62243000  1
  Cu  Cu8  1  0.96195000  0.81770000  0.59979000  1
  Cu  Cu9  1  0.98597000  0.05755000  0.45956000  1
  H  H10  1  0.03560000  0.31110000  0.32210000  1
  H  H11  1  0.06760000  0.62170000  0.36220000  1
  H  H12  1  0.11500000  0.23340000  0.70000000  1
  H  H13  1  0.12750000  0.62550000  0.73220000  1
  H  H14  1  0.13310000  0.88360000  0.27410000  1
  H  H15  1  0.14000000  0.45740000  0.71160000  1
  H  H16  1  0.14540000  0.50220000  0.82350000  1
  H  H17  1  0.18250000  0.33060000  0.80550000  1
  H  H18  1  0.23920000  0.75800000  0.39660000  1
  H  H19  1  0.26310000  0.80740000  0.61930000  1
  H  H20  1  0.26960000  0.60670000  0.21040000  1
  H  H21  1  0.27060000  0.79080000  0.23130000  1
  H  H22  1  0.27130000  0.14990000  0.66220000  1
  H  H23  1  0.28280000  0.41790000  0.25810000  1
  H  H24  1  0.30890000  0.44280000  0.15660000  1
  H  H25  1  0.31450000  0.63860000  0.82430000  1
  H  H26  1  0.33170000  0.32200000  0.61830000  1
  H  H27  1  0.38010000  0.04560000  0.65790000  1
  H  H28  1  0.43080000  0.73850000  0.16930000  1
  H  H29  1  0.43500000  0.74760000  0.67310000  1
  H  H30  1  0.44600000  0.83150000  0.46700000  1
  H  H31  1  0.45660000  0.36580000  0.31770000  1
  H  H32  1  0.46720000  0.60130000  0.30550000  1
  H  H33  1  0.47530000  0.04660000  0.37540000  1
  H  H34  1  0.52470000  0.95340000  0.62460000  1
  H  H35  1  0.53280000  0.39870000  0.69450000  1
  H  H36  1  0.54340000  0.63420000  0.68230000  1
  H  H37  1  0.55400000  0.16850000  0.53300000  1
  H  H38  1  0.56500000  0.25240000  0.32690000  1
  H  H39  1  0.56920000  0.26150000  0.83070000  1
  H  H40  1  0.61990000  0.95440000  0.34210000  1
  H  H41  1  0.66830000  0.67800000  0.38170000  1
  H  H42  1  0.68550000  0.36140000  0.17570000  1
  H  H43  1  0.69110000  0.55720000  0.84340000  1
  H  H44  1  0.71720000  0.58210000  0.74190000  1
  H  H45  1  0.72870000  0.85010000  0.33780000  1
  H  H46  1  0.72940000  0.20920000  0.76870000  1
  H  H47  1  0.73040000  0.39330000  0.78960000  1
  H  H48  1  0.73690000  0.19260000  0.38070000  1
  H  H49  1  0.76080000  0.24200000  0.60340000  1
  H  H50  1  0.81750000  0.66940000  0.19450000  1
  H  H51  1  0.85460000  0.49780000  0.17650000  1
  H  H52  1  0.86000000  0.54260000  0.28840000  1
  H  H53  1  0.86690000  0.11640000  0.72590000  1
  H  H54  1  0.87250000  0.37450000  0.26780000  1
  H  H55  1  0.88500000  0.76660000  0.30000000  1
  H  H56  1  0.93240000  0.37830000  0.63780000  1
  H  H57  1  0.96440000  0.68890000  0.67790000  1
  C  C58  1  0.05670000  0.52240000  0.10790000  1
  C  C59  1  0.05830000  0.44430000  0.72750000  1
  C  C60  1  0.06070000  0.70080000  0.67640000  1
  C  C61  1  0.06110000  0.54840000  0.18140000  1
  C  C62  1  0.06150000  0.47100000  0.79420000  1
  C  C63  1  0.06700000  0.60260000  0.31700000  1
  C  C64  1  0.15910000  0.66300000  0.70970000  1
  C  C65  1  0.18770000  0.59420000  0.22630000  1
  C  C66  1  0.19180000  0.62100000  0.29400000  1
  C  C67  1  0.20580000  0.23850000  0.72640000  1
  C  C68  1  0.23270000  0.89830000  0.28720000  1
  C  C69  1  0.23440000  0.76990000  0.64240000  1
  C  C70  1  0.24670000  0.29750000  0.78990000  1
  C  C71  1  0.29940000  0.18890000  0.70380000  1
  C  C72  1  0.30200000  0.68030000  0.70980000  1
  C  C73  1  0.31510000  0.84170000  0.26160000  1
  C  C74  1  0.32560000  0.74020000  0.39190000  1
  C  C75  1  0.32580000  0.67020000  0.34170000  1
  C  C76  1  0.33930000  0.73420000  0.67520000  1
  C  C77  1  0.36380000  0.40650000  0.24160000  1
  C  C78  1  0.37950000  0.42170000  0.18050000  1
  C  C79  1  0.38210000  0.30590000  0.82850000  1
  C  C80  1  0.39580000  0.62740000  0.80800000  1
  C  C81  1  0.41220000  0.64370000  0.74730000  1
  C  C82  1  0.41980000  0.30560000  0.61530000  1
  C  C83  1  0.42490000  0.36890000  0.89500000  1
  C  C84  1  0.43350000  0.99370000  0.34770000  1
  C  C85  1  0.43900000  0.19660000  0.74330000  1
  C  C86  1  0.45010000  0.78360000  0.43460000  1
  C  C87  1  0.45930000  0.64760000  0.33850000  1
  C  C88  1  0.46530000  0.86060000  0.28090000  1
  C  C89  1  0.46740000  0.37490000  0.27700000  1
  C  C90  1  0.47720000  0.57510000  0.90700000  1
  C  C91  1  0.47760000  0.25530000  0.80460000  1
  C  C92  1  0.47900000  0.06100000  0.67380000  1
  C  C93  1  0.49950000  0.59490000  0.84390000  1
  C  C94  1  0.50050000  0.40510000  0.15610000  1
  C  C95  1  0.52100000  0.93900000  0.32620000  1
  C  C96  1  0.52240000  0.74470000  0.19540000  1
  C  C97  1  0.52280000  0.42490000  0.09300000  1
  C  C98  1  0.53260000  0.62510000  0.72300000  1
  C  C99  1  0.53470000  0.13940000  0.71910000  1
  C  C100  1  0.54070000  0.35240000  0.66150000  1
  C  C101  1  0.54990000  0.21640000  0.56540000  1
  C  C102  1  0.56100000  0.80340000  0.25670000  1
  C  C103  1  0.56650000  0.00630000  0.65230000  1
  C  C104  1  0.57510000  0.63110000  0.10500000  1
  C  C105  1  0.58020000  0.69440000  0.38470000  1
  C  C106  1  0.58780000  0.35630000  0.25270000  1
  C  C107  1  0.60420000  0.37260000  0.19200000  1
  C  C108  1  0.61790000  0.69410000  0.17150000  1
  C  C109  1  0.62050000  0.57830000  0.81950000  1
  C  C110  1  0.63620000  0.59350000  0.75840000  1
  C  C111  1  0.66070000  0.26580000  0.32480000  1
  C  C112  1  0.67420000  0.32980000  0.65830000  1
  C  C113  1  0.67440000  0.25980000  0.60810000  1
  C  C114  1  0.68490000  0.15830000  0.73840000  1
  C  C115  1  0.69800000  0.31970000  0.29020000  1
  C  C116  1  0.70060000  0.81110000  0.29620000  1
  C  C117  1  0.75330000  0.70250000  0.21010000  1
  C  C118  1  0.76560000  0.23010000  0.35760000  1
  C  C119  1  0.76730000  0.10170000  0.71280000  1
  C  C120  1  0.79420000  0.76150000  0.27360000  1
  C  C121  1  0.80820000  0.37900000  0.70600000  1
  C  C122  1  0.81230000  0.40580000  0.77370000  1
  C  C123  1  0.84090000  0.33700000  0.29030000  1
  C  C124  1  0.93300000  0.39740000  0.68300000  1
  C  C125  1  0.93850000  0.52900000  0.20580000  1
  C  C126  1  0.93890000  0.45160000  0.81860000  1
  C  C127  1  0.93930000  0.29920000  0.32360000  1
  C  C128  1  0.94170000  0.55570000  0.27250000  1
  C  C129  1  0.94330000  0.47760000  0.89210000  1
  I  I130  1  0.00929000  0.22008000  0.52893000  1
  I  I131  1  0.08918000  0.97768000  0.67472000  1
  I  I132  1  0.23840000  0.01080000  0.50004000  1
  I  I133  1  0.30502000  0.21058000  0.38707000  1
  I  I134  1  0.69498000  0.78942000  0.61293000  1
  I  I135  1  0.76160000  0.98920000  0.49996000  1
  I  I136  1  0.91082000  0.02232000  0.32528000  1
  I  I137  1  0.99071000  0.77992000  0.47107000  1
  N  N138  1  0.09920000  0.75310000  0.64270000  1
  N  N139  1  0.28940000  0.97340000  0.33030000  1
  N  N140  1  0.42260000  0.23920000  0.56740000  1
  N  N141  1  0.57740000  0.76080000  0.43260000  1
  N  N142  1  0.71060000  0.02660000  0.66970000  1
  N  N143  1  0.90080000  0.24690000  0.35730000  1
  O  O144  1  0.06070000  0.51700000  0.93070000  1
  O  O145  1  0.16960000  0.54040000  0.08880000  1
  O  O146  1  0.33090000  0.40990000  0.91300000  1
  O  O147  1  0.35920000  0.58350000  0.92340000  1
  O  O148  1  0.42190000  0.44780000  0.05940000  1
  O  O149  1  0.44840000  0.62210000  0.07180000  1
  O  O150  1  0.55160000  0.37790000  0.92820000  1
  O  O151  1  0.57810000  0.55220000  0.94060000  1
  O  O152  1  0.64080000  0.41650000  0.07660000  1
  O  O153  1  0.66910000  0.59010000  0.08700000  1
  O  O154  1  0.83040000  0.45960000  0.91120000  1
  O  O155  1  0.93930000  0.48300000  0.06930000  1
