# generated using pymatgen
data_NdH4C12(SO4)2
_symmetry_space_group_name_H-M   'P 1'
_cell_length_a   11.57850000
_cell_length_b   11.73800000
_cell_length_c   16.58180000
_cell_angle_alpha   90.00000000
_cell_angle_beta   90.00000000
_cell_angle_gamma   113.51400000
_symmetry_Int_Tables_number   1
_chemical_formula_structural   NdH4C12(SO4)2
_chemical_formula_sum   'Nd4 H16 C48 S8 O32'
_cell_volume   2066.47286580
_cell_formula_units_Z   4
loop_
 _symmetry_equiv_pos_site_id
 _symmetry_equiv_pos_as_xyz
  1  'x, y, z'
loop_
 _atom_site_type_symbol
 _atom_site_label
 _atom_site_symmetry_multiplicity
 _atom_site_fract_x
 _atom_site_fract_y
 _atom_site_fract_z
 _atom_site_occupancy
  Nd  Nd0  1  0.42474000  0.30994000  0.53407000  1
  Nd  Nd1  1  0.92474000  0.30994000  0.96593000  1
  Nd  Nd2  1  0.07526000  0.69006000  0.03407000  1
  Nd  Nd3  1  0.57526000  0.69006000  0.46593000  1
  H  H4  1  0.53580000  0.05630000  0.60760000  1
  H  H5  1  0.03580000  0.05630000  0.89240000  1
  H  H6  1  0.58870000  0.16770000  0.73780000  1
  H  H7  1  0.08870000  0.16770000  0.76220000  1
  H  H8  1  0.06220000  0.22830000  0.23550000  1
  H  H9  1  0.56220000  0.22830000  0.26450000  1
  H  H10  1  0.67870000  0.25800000  0.13900000  1
  H  H11  1  0.17870000  0.25800000  0.36100000  1
  H  H12  1  0.82130000  0.74200000  0.63900000  1
  H  H13  1  0.32130000  0.74200000  0.86100000  1
  H  H14  1  0.43780000  0.77170000  0.73550000  1
  H  H15  1  0.93780000  0.77170000  0.76450000  1
  H  H16  1  0.91130000  0.83230000  0.23780000  1
  H  H17  1  0.41130000  0.83230000  0.26220000  1
  H  H18  1  0.96420000  0.94370000  0.10760000  1
  H  H19  1  0.46420000  0.94370000  0.39240000  1
  C  C20  1  0.82440000  0.00670000  0.12660000  1
  C  C21  1  0.32440000  0.00670000  0.37340000  1
  C  C22  1  0.59970000  0.05660000  0.64170000  1
  C  C23  1  0.09970000  0.05660000  0.85830000  1
  C  C24  1  0.83960000  0.09290000  0.05800000  1
  C  C25  1  0.33960000  0.09290000  0.44200000  1
  C  C26  1  0.23340000  0.11150000  0.74740000  1
  C  C27  1  0.73340000  0.11150000  0.75260000  1
  C  C28  1  0.63170000  0.12260000  0.71630000  1
  C  C29  1  0.13170000  0.12260000  0.78370000  1
  C  C30  1  0.29440000  0.17420000  0.67200000  1
  C  C31  1  0.79440000  0.17420000  0.82800000  1
  C  C32  1  0.60540000  0.30580000  0.24110000  1
  C  C33  1  0.10540000  0.30580000  0.25890000  1
  C  C34  1  0.67200000  0.32220000  0.16860000  1
  C  C35  1  0.17200000  0.32220000  0.33140000  1
  C  C36  1  0.10950000  0.41310000  0.22590000  1
  C  C37  1  0.60950000  0.41310000  0.27410000  1
  C  C38  1  0.05410000  0.43480000  0.14900000  1
  C  C39  1  0.55410000  0.43480000  0.35100000  1
  C  C40  1  0.72680000  0.44690000  0.14650000  1
  C  C41  1  0.22680000  0.44690000  0.35350000  1
  C  C42  1  0.69130000  0.49430000  0.57710000  1
  C  C43  1  0.19130000  0.49430000  0.92290000  1
  C  C44  1  0.80870000  0.50570000  0.07710000  1
  C  C45  1  0.30870000  0.50570000  0.42290000  1
  C  C46  1  0.77320000  0.55310000  0.64650000  1
  C  C47  1  0.27320000  0.55310000  0.85350000  1
  C  C48  1  0.44590000  0.56520000  0.64900000  1
  C  C49  1  0.94590000  0.56520000  0.85100000  1
  C  C50  1  0.39050000  0.58690000  0.72590000  1
  C  C51  1  0.89050000  0.58690000  0.77410000  1
  C  C52  1  0.82800000  0.67780000  0.66860000  1
  C  C53  1  0.32800000  0.67780000  0.83140000  1
  C  C54  1  0.89460000  0.69420000  0.74110000  1
  C  C55  1  0.39460000  0.69420000  0.75890000  1
  C  C56  1  0.20560000  0.82580000  0.17200000  1
  C  C57  1  0.70560000  0.82580000  0.32800000  1
  C  C58  1  0.86830000  0.87740000  0.21630000  1
  C  C59  1  0.36830000  0.87740000  0.28370000  1
  C  C60  1  0.26660000  0.88850000  0.24740000  1
  C  C61  1  0.76660000  0.88850000  0.25260000  1
  C  C62  1  0.66040000  0.90710000  0.55800000  1
  C  C63  1  0.16040000  0.90710000  0.94200000  1
  C  C64  1  0.90030000  0.94340000  0.14170000  1
  C  C65  1  0.40030000  0.94340000  0.35830000  1
  C  C66  1  0.67560000  0.99330000  0.62660000  1
  C  C67  1  0.17560000  0.99330000  0.87340000  1
  S  S68  1  0.78857000  0.01950000  0.69940000  1
  S  S69  1  0.28857000  0.01950000  0.80060000  1
  S  S70  1  0.80356000  0.46058000  0.71616000  1
  S  S71  1  0.30356000  0.46058000  0.78384000  1
  S  S72  1  0.69644000  0.53942000  0.21616000  1
  S  S73  1  0.19644000  0.53942000  0.28384000  1
  S  S74  1  0.71143000  0.98050000  0.19940000  1
  S  S75  1  0.21143000  0.98050000  0.30060000  1
  O  O76  1  0.92680000  0.11040000  0.00840000  1
  O  O77  1  0.42680000  0.11040000  0.49160000  1
  O  O78  1  0.76470000  0.14770000  0.05430000  1
  O  O79  1  0.26470000  0.14770000  0.44570000  1
  O  O80  1  0.40710000  0.18650000  0.66020000  1
  O  O81  1  0.90710000  0.18650000  0.83980000  1
  O  O82  1  0.23330000  0.21240000  0.62240000  1
  O  O83  1  0.73330000  0.21240000  0.87760000  1
  O  O84  1  0.01650000  0.34420000  0.09970000  1
  O  O85  1  0.51650000  0.34420000  0.40030000  1
  O  O86  1  0.64770000  0.37810000  0.57260000  1
  O  O87  1  0.14770000  0.37810000  0.92740000  1
  O  O88  1  0.83210000  0.43680000  0.02590000  1
  O  O89  1  0.33210000  0.43680000  0.47410000  1
  O  O90  1  0.44470000  0.46060000  0.63790000  1
  O  O91  1  0.94470000  0.46060000  0.86210000  1
  O  O92  1  0.05530000  0.53940000  0.13790000  1
  O  O93  1  0.55530000  0.53940000  0.36210000  1
  O  O94  1  0.66790000  0.56320000  0.52590000  1
  O  O95  1  0.16790000  0.56320000  0.97410000  1
  O  O96  1  0.85230000  0.62190000  0.07260000  1
  O  O97  1  0.35230000  0.62190000  0.42740000  1
  O  O98  1  0.48350000  0.65580000  0.59970000  1
  O  O99  1  0.98350000  0.65580000  0.90030000  1
  O  O100  1  0.26670000  0.78760000  0.12240000  1
  O  O101  1  0.76670000  0.78760000  0.37760000  1
  O  O102  1  0.09290000  0.81350000  0.16020000  1
  O  O103  1  0.59290000  0.81350000  0.33980000  1
  O  O104  1  0.73530000  0.85230000  0.55430000  1
  O  O105  1  0.23530000  0.85230000  0.94570000  1
  O  O106  1  0.57320000  0.88960000  0.50840000  1
  O  O107  1  0.07320000  0.88960000  0.99160000  1
