# generated using pymatgen
data_Zn4H24C43N7O16
_symmetry_space_group_name_H-M   'P 1'
_cell_length_a   14.08400000
_cell_length_b   21.63200000
_cell_length_c   25.79400000
_cell_angle_alpha   106.27000000
_cell_angle_beta   90.00000000
_cell_angle_gamma   90.00000000
_symmetry_Int_Tables_number   1
_chemical_formula_structural   Zn4H24C43N7O16
_chemical_formula_sum   'Zn16 H96 C172 N28 O64'
_cell_volume   7543.81373977
_cell_formula_units_Z   4
loop_
 _symmetry_equiv_pos_site_id
 _symmetry_equiv_pos_as_xyz
  1  'x, y, z'
loop_
 _atom_site_type_symbol
 _atom_site_label
 _atom_site_symmetry_multiplicity
 _atom_site_fract_x
 _atom_site_fract_y
 _atom_site_fract_z
 _atom_site_occupancy
  Zn  Zn0  1  0.12281000  0.88139000  0.27370000  1
  Zn  Zn1  1  0.12833000  0.57550000  0.10070000  1
  Zn  Zn2  1  0.12846000  0.38990000  0.28844000  1
  Zn  Zn3  1  0.14230000  0.08379000  0.12371000  1
  Zn  Zn4  1  0.35770000  0.08379000  0.62371000  1
  Zn  Zn5  1  0.37154000  0.38990000  0.78844000  1
  Zn  Zn6  1  0.37167000  0.57550000  0.60070000  1
  Zn  Zn7  1  0.37719000  0.88139000  0.77370000  1
  Zn  Zn8  1  0.62281000  0.11861000  0.22630000  1
  Zn  Zn9  1  0.62833000  0.42450000  0.39930000  1
  Zn  Zn10  1  0.62846000  0.61010000  0.21156000  1
  Zn  Zn11  1  0.64230000  0.91621000  0.37629000  1
  Zn  Zn12  1  0.85770000  0.91621000  0.87629000  1
  Zn  Zn13  1  0.87154000  0.61010000  0.71156000  1
  Zn  Zn14  1  0.87167000  0.42450000  0.89930000  1
  Zn  Zn15  1  0.87719000  0.11861000  0.72630000  1
  H  H16  1  0.00730000  0.84570000  0.02430000  1
  H  H17  1  0.00750000  0.36690000  0.06140000  1
  H  H18  1  0.02880000  0.39370000  0.47610000  1
  H  H19  1  0.03200000  0.56690000  0.44920000  1
  H  H20  1  0.05150000  0.08550000  0.02050000  1
  H  H21  1  0.05340000  0.56750000  0.98590000  1
  H  H22  1  0.05480000  0.24820000  0.24200000  1
  H  H23  1  0.05480000  0.74920000  0.19780000  1
  H  H24  1  0.05700000  0.78390000  0.06330000  1
  H  H25  1  0.07130000  0.30090000  0.09990000  1
  H  H26  1  0.07540000  0.60160000  0.66890000  1
  H  H27  1  0.07550000  0.11990000  0.69100000  1
  H  H28  1  0.08130000  0.30960000  0.82330000  1
  H  H29  1  0.08300000  0.81400000  0.76200000  1
  H  H30  1  0.09460000  0.35230000  0.39270000  1
  H  H31  1  0.09700000  0.52010000  0.36640000  1
  H  H32  1  0.11980000  0.71460000  0.10580000  1
  H  H33  1  0.12930000  0.22920000  0.14180000  1
  H  H34  1  0.15500000  0.03100000  0.71300000  1
  H  H35  1  0.16560000  0.56150000  0.73810000  1
  H  H36  1  0.16950000  0.41810000  0.83730000  1
  H  H37  1  0.19450000  0.91330000  0.83340000  1
  H  H38  1  0.20050000  0.50430000  0.24400000  1
  H  H39  1  0.20870000  0.97620000  0.21680000  1
  H  H40  1  0.29130000  0.97620000  0.71680000  1
  H  H41  1  0.29950000  0.50430000  0.74400000  1
  H  H42  1  0.30550000  0.91330000  0.33340000  1
  H  H43  1  0.33050000  0.41810000  0.33730000  1
  H  H44  1  0.33440000  0.56150000  0.23810000  1
  H  H45  1  0.34500000  0.03100000  0.21300000  1
  H  H46  1  0.37070000  0.22920000  0.64180000  1
  H  H47  1  0.38020000  0.71460000  0.60580000  1
  H  H48  1  0.40300000  0.52010000  0.86640000  1
  H  H49  1  0.40540000  0.35230000  0.89270000  1
  H  H50  1  0.41700000  0.81400000  0.26200000  1
  H  H51  1  0.41870000  0.30960000  0.32330000  1
  H  H52  1  0.42450000  0.11990000  0.19100000  1
  H  H53  1  0.42460000  0.60160000  0.16890000  1
  H  H54  1  0.42870000  0.30090000  0.59990000  1
  H  H55  1  0.44300000  0.78390000  0.56330000  1
  H  H56  1  0.44520000  0.24820000  0.74200000  1
  H  H57  1  0.44520000  0.74920000  0.69780000  1
  H  H58  1  0.44660000  0.56750000  0.48590000  1
  H  H59  1  0.44850000  0.08550000  0.52050000  1
  H  H60  1  0.46800000  0.56690000  0.94920000  1
  H  H61  1  0.47120000  0.39370000  0.97610000  1
  H  H62  1  0.49250000  0.36690000  0.56140000  1
  H  H63  1  0.49270000  0.84570000  0.52430000  1
  H  H64  1  0.50730000  0.15430000  0.47570000  1
  H  H65  1  0.50750000  0.63310000  0.43860000  1
  H  H66  1  0.52880000  0.60630000  0.02390000  1
  H  H67  1  0.53200000  0.43310000  0.05080000  1
  H  H68  1  0.55150000  0.91450000  0.47950000  1
  H  H69  1  0.55340000  0.43250000  0.51410000  1
  H  H70  1  0.55480000  0.25080000  0.30220000  1
  H  H71  1  0.55480000  0.75180000  0.25800000  1
  H  H72  1  0.55700000  0.21610000  0.43670000  1
  H  H73  1  0.57130000  0.69910000  0.40010000  1
  H  H74  1  0.57540000  0.39840000  0.83110000  1
  H  H75  1  0.57550000  0.88010000  0.80900000  1
  H  H76  1  0.58130000  0.69040000  0.67670000  1
  H  H77  1  0.58300000  0.18600000  0.73800000  1
  H  H78  1  0.59460000  0.64770000  0.10730000  1
  H  H79  1  0.59700000  0.47990000  0.13360000  1
  H  H80  1  0.61980000  0.28540000  0.39420000  1
  H  H81  1  0.62930000  0.77080000  0.35820000  1
  H  H82  1  0.65500000  0.96900000  0.78700000  1
  H  H83  1  0.66560000  0.43850000  0.76190000  1
  H  H84  1  0.66950000  0.58190000  0.66270000  1
  H  H85  1  0.69450000  0.08670000  0.66666667  1
  H  H86  1  0.70050000  0.49570000  0.25600000  1
  H  H87  1  0.70870000  0.02380000  0.28320000  1
  H  H88  1  0.79130000  0.02380000  0.78320000  1
  H  H89  1  0.79950000  0.49570000  0.75600000  1
  H  H90  1  0.80550000  0.08670000  0.16660000  1
  H  H91  1  0.83050000  0.58190000  0.16270000  1
  H  H92  1  0.83440000  0.43850000  0.26190000  1
  H  H93  1  0.84500000  0.96900000  0.28700000  1
  H  H94  1  0.87070000  0.77080000  0.85820000  1
  H  H95  1  0.88020000  0.28540000  0.89420000  1
  H  H96  1  0.90300000  0.47990000  0.63360000  1
  H  H97  1  0.90540000  0.64770000  0.60730000  1
  H  H98  1  0.91700000  0.18600000  0.23800000  1
  H  H99  1  0.91870000  0.69040000  0.17670000  1
  H  H100  1  0.92450000  0.88010000  0.30900000  1
  H  H101  1  0.92460000  0.39840000  0.33110000  1
  H  H102  1  0.92870000  0.69910000  0.90010000  1
  H  H103  1  0.94300000  0.21610000  0.93670000  1
  H  H104  1  0.94520000  0.25080000  0.80220000  1
  H  H105  1  0.94520000  0.75180000  0.75800000  1
  H  H106  1  0.94660000  0.43250000  0.01410000  1
  H  H107  1  0.94850000  0.91450000  0.97950000  1
  H  H108  1  0.96800000  0.43310000  0.55080000  1
  H  H109  1  0.97120000  0.60630000  0.52390000  1
  H  H110  1  0.99250000  0.63310000  0.93860000  1
  H  H111  1  0.99270000  0.15430000  0.97570000  1
  C  C112  1  0.00020000  0.95240000  0.22450000  1
  C  C113  1  0.00040000  0.26720000  0.26000000  1
  C  C114  1  0.00050000  0.23520000  0.78330000  1
  C  C115  1  0.00460000  0.43580000  0.21910000  1
  C  C116  1  0.00460000  0.53790000  0.15960000  1
  C  C117  1  0.01480000  0.71770000  0.99570000  1
  C  C118  1  0.01670000  0.65100000  0.97310000  1
  C  C119  1  0.02020000  0.17080000  0.00960000  1
  C  C120  1  0.02240000  0.48560000  0.47300000  1
  C  C121  1  0.02480000  0.95720000  0.84830000  1
  C  C122  1  0.02510000  0.23700000  0.03260000  1
  C  C123  1  0.04210000  0.42070000  0.45460000  1
  C  C124  1  0.04400000  0.52280000  0.43860000  1
  C  C125  1  0.05420000  0.61180000  0.00170000  1
  C  C126  1  0.05510000  0.73990000  0.04630000  1
  C  C127  1  0.05600000  0.12960000  0.03670000  1
  C  C128  1  0.06670000  0.25700000  0.08270000  1
  C  C129  1  0.07650000  0.64500000  0.68810000  1
  C  C130  1  0.07750000  0.15850000  0.71840000  1
  C  C131  1  0.08000000  0.77050000  0.74230000  1
  C  C132  1  0.08110000  0.52400000  0.78450000  1
  C  C133  1  0.08160000  0.39620000  0.40420000  1
  C  C134  1  0.08220000  0.27070000  0.79630000  1
  C  C135  1  0.08320000  0.49430000  0.38880000  1
  C  C136  1  0.08410000  0.47920000  0.81420000  1
  C  C137  1  0.08720000  0.00630000  0.77520000  1
  C  C138  1  0.09250000  0.69770000  0.07190000  1
  C  C139  1  0.10030000  0.96950000  0.81100000  1
  C  C140  1  0.10150000  0.21370000  0.10790000  1
  C  C141  1  0.16060000  0.00780000  0.73950000  1
  C  C142  1  0.16090000  0.67820000  0.68870000  1
  C  C143  1  0.16270000  0.74350000  0.71670000  1
  C  C144  1  0.16330000  0.19010000  0.72880000  1
  C  C145  1  0.16430000  0.53220000  0.75850000  1
  C  C146  1  0.16650000  0.24870000  0.76900000  1
  C  C147  1  0.16830000  0.44710000  0.81660000  1
  C  C148  1  0.18580000  0.93770000  0.80930000  1
  C  C149  1  0.24300000  0.97440000  0.74100000  1
  C  C150  1  0.24510000  0.49770000  0.76220000  1
  C  C151  1  0.24590000  0.64320000  0.66020000  1
  C  C152  1  0.24700000  0.29090000  0.28450000  1
  C  C153  1  0.24820000  0.78640000  0.71940000  1
  C  C154  1  0.24850000  0.15890000  0.69750000  1
  C  C155  1  0.25150000  0.15890000  0.19750000  1
  C  C156  1  0.25180000  0.78640000  0.21940000  1
  C  C157  1  0.25300000  0.29090000  0.78450000  1
  C  C158  1  0.25410000  0.64320000  0.16020000  1
  C  C159  1  0.25490000  0.49770000  0.26220000  1
  C  C160  1  0.25700000  0.97440000  0.24100000  1
  C  C161  1  0.31420000  0.93770000  0.30930000  1
  C  C162  1  0.33170000  0.44710000  0.31660000  1
  C  C163  1  0.33350000  0.24870000  0.26900000  1
  C  C164  1  0.33570000  0.53220000  0.25850000  1
  C  C165  1  0.33670000  0.19010000  0.22880000  1
  C  C166  1  0.33730000  0.74350000  0.21670000  1
  C  C167  1  0.33910000  0.67820000  0.18870000  1
  C  C168  1  0.33940000  0.00780000  0.23950000  1
  C  C169  1  0.39850000  0.21370000  0.60790000  1
  C  C170  1  0.39970000  0.96950000  0.31100000  1
  C  C171  1  0.40750000  0.69770000  0.57190000  1
  C  C172  1  0.41280000  0.00630000  0.27520000  1
  C  C173  1  0.41590000  0.47920000  0.31420000  1
  C  C174  1  0.41680000  0.49430000  0.88880000  1
  C  C175  1  0.41780000  0.27070000  0.29630000  1
  C  C176  1  0.41840000  0.39620000  0.90420000  1
  C  C177  1  0.41890000  0.52400000  0.28450000  1
  C  C178  1  0.42000000  0.77050000  0.24230000  1
  C  C179  1  0.42250000  0.15850000  0.21840000  1
  C  C180  1  0.42350000  0.64500000  0.18810000  1
  C  C181  1  0.43330000  0.25700000  0.58270000  1
  C  C182  1  0.44400000  0.12960000  0.53670000  1
  C  C183  1  0.44490000  0.73990000  0.54630000  1
  C  C184  1  0.44580000  0.61180000  0.50170000  1
  C  C185  1  0.45600000  0.52280000  0.93860000  1
  C  C186  1  0.45790000  0.42070000  0.95460000  1
  C  C187  1  0.47490000  0.23700000  0.53260000  1
  C  C188  1  0.47520000  0.95720000  0.34830000  1
  C  C189  1  0.47760000  0.48560000  0.97300000  1
  C  C190  1  0.47980000  0.17080000  0.50960000  1
  C  C191  1  0.48330000  0.65100000  0.47310000  1
  C  C192  1  0.48520000  0.71770000  0.49570000  1
  C  C193  1  0.49540000  0.43580000  0.71910000  1
  C  C194  1  0.49540000  0.53790000  0.65960000  1
  C  C195  1  0.49950000  0.23520000  0.28330000  1
  C  C196  1  0.49960000  0.26720000  0.76000000  1
  C  C197  1  0.49980000  0.95240000  0.72450000  1
  C  C198  1  0.50020000  0.04760000  0.27550000  1
  C  C199  1  0.50040000  0.73280000  0.24000000  1
  C  C200  1  0.50050000  0.76480000  0.71670000  1
  C  C201  1  0.50460000  0.46210000  0.34040000  1
  C  C202  1  0.50460000  0.56420000  0.28090000  1
  C  C203  1  0.51480000  0.28230000  0.50430000  1
  C  C204  1  0.51670000  0.34900000  0.52690000  1
  C  C205  1  0.52020000  0.82920000  0.49040000  1
  C  C206  1  0.52240000  0.51440000  0.02700000  1
  C  C207  1  0.52480000  0.04280000  0.65170000  1
  C  C208  1  0.52510000  0.76300000  0.46740000  1
  C  C209  1  0.54210000  0.57930000  0.04540000  1
  C  C210  1  0.54400000  0.47720000  0.06140000  1
  C  C211  1  0.55420000  0.38820000  0.49830000  1
  C  C212  1  0.55510000  0.26010000  0.45370000  1
  C  C213  1  0.55600000  0.87040000  0.46330000  1
  C  C214  1  0.56670000  0.74300000  0.41730000  1
  C  C215  1  0.57650000  0.35500000  0.81190000  1
  C  C216  1  0.57750000  0.84150000  0.78160000  1
  C  C217  1  0.58000000  0.22950000  0.75770000  1
  C  C218  1  0.58110000  0.47600000  0.71550000  1
  C  C219  1  0.58160000  0.60380000  0.09580000  1
  C  C220  1  0.58220000  0.72930000  0.70370000  1
  C  C221  1  0.58320000  0.50570000  0.11120000  1
  C  C222  1  0.58410000  0.52080000  0.68580000  1
  C  C223  1  0.58720000  0.99370000  0.72480000  1
  C  C224  1  0.59250000  0.30230000  0.42810000  1
  C  C225  1  0.60030000  0.03050000  0.68900000  1
  C  C226  1  0.60150000  0.78630000  0.39210000  1
  C  C227  1  0.66060000  0.99220000  0.76050000  1
  C  C228  1  0.66090000  0.32180000  0.81130000  1
  C  C229  1  0.66270000  0.25650000  0.78330000  1
  C  C230  1  0.66330000  0.80990000  0.77120000  1
  C  C231  1  0.66430000  0.46780000  0.74150000  1
  C  C232  1  0.66650000  0.75130000  0.73100000  1
  C  C233  1  0.66830000  0.55290000  0.68340000  1
  C  C234  1  0.68580000  0.06230000  0.69070000  1
  C  C235  1  0.74300000  0.02560000  0.75900000  1
  C  C236  1  0.74510000  0.50230000  0.73780000  1
  C  C237  1  0.74590000  0.35680000  0.83980000  1
  C  C238  1  0.74700000  0.70910000  0.21550000  1
  C  C239  1  0.74820000  0.21360000  0.78060000  1
  C  C240  1  0.74850000  0.84110000  0.80250000  1
  C  C241  1  0.75150000  0.84110000  0.30250000  1
  C  C242  1  0.75180000  0.21360000  0.28060000  1
  C  C243  1  0.75300000  0.70910000  0.71550000  1
  C  C244  1  0.75410000  0.35680000  0.33980000  1
  C  C245  1  0.75490000  0.50230000  0.23780000  1
  C  C246  1  0.75700000  0.02560000  0.25900000  1
  C  C247  1  0.81420000  0.06230000  0.19070000  1
  C  C248  1  0.83170000  0.55290000  0.18340000  1
  C  C249  1  0.83350000  0.75130000  0.23100000  1
  C  C250  1  0.83570000  0.46780000  0.24150000  1
  C  C251  1  0.83670000  0.80990000  0.27120000  1
  C  C252  1  0.83730000  0.25650000  0.28330000  1
  C  C253  1  0.83910000  0.32180000  0.31130000  1
  C  C254  1  0.83940000  0.99220000  0.26050000  1
  C  C255  1  0.89850000  0.78630000  0.89210000  1
  C  C256  1  0.89970000  0.03050000  0.18900000  1
  C  C257  1  0.90750000  0.30230000  0.92810000  1
  C  C258  1  0.91280000  0.99370000  0.22480000  1
  C  C259  1  0.91590000  0.52080000  0.18580000  1
  C  C260  1  0.91680000  0.50570000  0.61120000  1
  C  C261  1  0.91780000  0.72930000  0.20370000  1
  C  C262  1  0.91840000  0.60380000  0.59580000  1
  C  C263  1  0.91890000  0.47600000  0.21550000  1
  C  C264  1  0.92000000  0.22950000  0.25770000  1
  C  C265  1  0.92250000  0.84150000  0.28160000  1
  C  C266  1  0.92350000  0.35500000  0.31190000  1
  C  C267  1  0.93330000  0.74300000  0.91730000  1
  C  C268  1  0.94400000  0.87040000  0.96330000  1
  C  C269  1  0.94490000  0.26010000  0.95370000  1
  C  C270  1  0.94580000  0.38820000  0.99830000  1
  C  C271  1  0.95600000  0.47720000  0.56140000  1
  C  C272  1  0.95790000  0.57930000  0.54540000  1
  C  C273  1  0.97490000  0.76300000  0.96740000  1
  C  C274  1  0.97520000  0.04280000  0.15170000  1
  C  C275  1  0.97760000  0.51440000  0.52700000  1
  C  C276  1  0.97980000  0.82920000  0.99040000  1
  C  C277  1  0.98330000  0.34900000  0.02690000  1
  C  C278  1  0.98520000  0.28230000  0.00430000  1
  C  C279  1  0.99540000  0.46210000  0.84040000  1
  C  C280  1  0.99540000  0.56420000  0.78090000  1
  C  C281  1  0.99950000  0.76480000  0.21670000  1
  C  C282  1  0.99960000  0.73280000  0.74000000  1
  C  C283  1  0.99980000  0.04760000  0.77550000  1
  N  N284  1  0.00290000  0.32950000  0.28688000  1
  N  N285  1  0.00330000  0.82070000  0.25508000  1
  N  N286  1  0.09190000  0.63390000  0.05110000  1
  N  N287  1  0.09700000  0.14990000  0.08540000  1
  N  N288  1  0.10220000  0.43180000  0.37107000  1
  N  N289  1  0.24300000  0.93970000  0.27546000  1
  N  N290  1  0.24790000  0.45510000  0.79124000  1
  N  N291  1  0.25210000  0.45510000  0.29124000  1
  N  N292  1  0.25700000  0.93970000  0.77546000  1
  N  N293  1  0.39780000  0.43180000  0.87107000  1
  N  N294  1  0.40300000  0.14990000  0.58540000  1
  N  N295  1  0.40810000  0.63390000  0.55110000  1
  N  N296  1  0.49670000  0.82070000  0.75508000  1
  N  N297  1  0.49710000  0.32950000  0.78688000  1
  N  N298  1  0.50290000  0.67050000  0.21312000  1
  N  N299  1  0.50330000  0.17930000  0.24492000  1
  N  N300  1  0.59190000  0.36610000  0.44890000  1
  N  N301  1  0.59700000  0.85010000  0.41460000  1
  N  N302  1  0.60220000  0.56820000  0.12893000  1
  N  N303  1  0.74300000  0.06030000  0.22454000  1
  N  N304  1  0.74790000  0.54490000  0.70876000  1
  N  N305  1  0.75210000  0.54490000  0.20876000  1
  N  N306  1  0.75700000  0.06030000  0.72454000  1
  N  N307  1  0.89780000  0.56820000  0.62893000  1
  N  N308  1  0.90300000  0.85010000  0.91460000  1
  N  N309  1  0.90810000  0.36610000  0.94890000  1
  N  N310  1  0.99670000  0.17930000  0.74492000  1
  N  N311  1  0.99710000  0.67050000  0.71312000  1
  O  O312  1  0.00630000  0.43440000  0.87683000  1
  O  O313  1  0.02410000  0.91610000  0.18070000  1
  O  O314  1  0.02450000  0.39090000  0.17973000  1
  O  O315  1  0.03730000  0.95617000  0.26912000  1
  O  O316  1  0.04590000  0.45141000  0.26406000  1
  O  O317  1  0.04800000  0.95370000  0.89350000  1
  O  O318  1  0.05790000  0.05061000  0.17013000  1
  O  O319  1  0.08280000  0.52590000  0.17440000  1
  O  O320  1  0.17170000  0.17843000  0.21224000  1
  O  O321  1  0.17330000  0.66520000  0.17258000  1
  O  O322  1  0.21330000  0.80483000  0.26502000  1
  O  O323  1  0.21610000  0.29930000  0.33060000  1
  O  O324  1  0.21680000  0.31856000  0.25070000  1
  O  O325  1  0.22850000  0.80270000  0.17910000  1
  O  O326  1  0.23270000  0.11119000  0.65598000  1
  O  O327  1  0.23290000  0.59190000  0.62324000  1
  O  O328  1  0.26710000  0.59190000  0.12324000  1
  O  O329  1  0.26730000  0.11119000  0.15598000  1
  O  O330  1  0.27150000  0.80270000  0.67910000  1
  O  O331  1  0.28320000  0.31856000  0.75070000  1
  O  O332  1  0.28390000  0.29930000  0.83060000  1
  O  O333  1  0.28670000  0.80483000  0.76502000  1
  O  O334  1  0.32670000  0.66520000  0.67258000  1
  O  O335  1  0.32830000  0.17843000  0.71224000  1
  O  O336  1  0.41720000  0.52590000  0.67440000  1
  O  O337  1  0.44210000  0.05061000  0.67013000  1
  O  O338  1  0.45200000  0.95370000  0.39350000  1
  O  O339  1  0.45410000  0.45141000  0.76406000  1
  O  O340  1  0.46270000  0.95617000  0.76912000  1
  O  O341  1  0.47550000  0.39090000  0.67973000  1
  O  O342  1  0.47590000  0.91610000  0.68070000  1
  O  O343  1  0.49370000  0.43440000  0.37683000  1
  O  O344  1  0.50630000  0.56560000  0.62317000  1
  O  O345  1  0.52410000  0.08390000  0.31930000  1
  O  O346  1  0.52450000  0.60910000  0.32027000  1
  O  O347  1  0.53730000  0.04383000  0.23088000  1
  O  O348  1  0.54590000  0.54859000  0.23594000  1
  O  O349  1  0.54800000  0.04630000  0.60650000  1
  O  O350  1  0.55790000  0.94939000  0.32987000  1
  O  O351  1  0.58280000  0.47410000  0.32560000  1
  O  O352  1  0.67170000  0.82157000  0.28776000  1
  O  O353  1  0.67330000  0.33480000  0.32742000  1
  O  O354  1  0.71330000  0.19517000  0.23498000  1
  O  O355  1  0.71610000  0.70070000  0.16940000  1
  O  O356  1  0.71680000  0.68144000  0.24930000  1
  O  O357  1  0.72850000  0.19730000  0.32090000  1
  O  O358  1  0.73270000  0.88881000  0.84402000  1
  O  O359  1  0.73290000  0.40810000  0.87676000  1
  O  O360  1  0.76710000  0.40810000  0.37676000  1
  O  O361  1  0.76730000  0.88881000  0.34402000  1
  O  O362  1  0.77150000  0.19730000  0.82090000  1
  O  O363  1  0.78320000  0.68144000  0.74930000  1
  O  O364  1  0.78390000  0.70070000  0.66940000  1
  O  O365  1  0.78670000  0.19517000  0.73498000  1
  O  O366  1  0.82670000  0.33480000  0.82742000  1
  O  O367  1  0.82830000  0.82157000  0.78776000  1
  O  O368  1  0.91720000  0.47410000  0.82560000  1
  O  O369  1  0.94210000  0.94939000  0.82987000  1
  O  O370  1  0.95200000  0.04630000  0.10650000  1
  O  O371  1  0.95410000  0.54859000  0.73594000  1
  O  O372  1  0.96270000  0.04383000  0.73088000  1
  O  O373  1  0.97550000  0.60910000  0.82027000  1
  O  O374  1  0.97590000  0.08390000  0.81930000  1
  O  O375  1  0.99370000  0.56560000  0.12317000  1
