# generated using pymatgen
data_Zr3H4C12(SO6)2
_symmetry_space_group_name_H-M   'P 1'
_cell_length_a   27.65490000
_cell_length_b   27.65490000
_cell_length_c   27.65490000
_cell_angle_alpha   60.00000000
_cell_angle_beta   60.00000000
_cell_angle_gamma   60.00000000
_symmetry_Int_Tables_number   1
_chemical_formula_structural   Zr3H4C12(SO6)2
_chemical_formula_sum   'Zr36 H48 C144 S24 O144'
_cell_volume   14955.51178424
_cell_formula_units_Z   12
loop_
 _symmetry_equiv_pos_site_id
 _symmetry_equiv_pos_as_xyz
  1  'x, y, z'
loop_
 _atom_site_type_symbol
 _atom_site_label
 _atom_site_symmetry_multiplicity
 _atom_site_fract_x
 _atom_site_fract_y
 _atom_site_fract_z
 _atom_site_occupancy
  Zr  Zr0  1  0.58934000  0.41066000  0.00000000  1
  Zr  Zr1  1  0.41066000  0.00000000  1.00000000  1
  Zr  Zr2  1  0.00000000  0.41066000  1.00000000  1
  Zr  Zr3  1  0.58934000  0.00000000  1.00000000  1
  Zr  Zr4  1  0.00000000  0.58934000  1.00000000  1
  Zr  Zr5  1  0.41066000  0.58934000  0.00000000  1
  Zr  Zr6  1  0.10883000  0.45469000  0.98179000  1
  Zr  Zr7  1  0.45469000  0.10883000  0.98179000  1
  Zr  Zr8  1  0.45469000  0.45469000  0.98179000  1
  Zr  Zr9  1  0.01822000  0.54531000  0.89116000  1
  Zr  Zr10  1  0.54531000  0.01822000  0.89116000  1
  Zr  Zr11  1  0.54531000  0.54531000  0.89116000  1
  Zr  Zr12  1  0.41066000  0.00000000  0.58934000  1
  Zr  Zr13  1  0.00000000  0.41066000  0.58934000  1
  Zr  Zr14  1  0.00000000  0.00000000  0.58934000  1
  Zr  Zr15  1  0.01822000  0.54531000  0.54530000  1
  Zr  Zr16  1  0.54531000  0.01822000  0.54530000  1
  Zr  Zr17  1  0.01822000  0.89117000  0.54530000  1
  Zr  Zr18  1  0.89117000  0.01822000  0.54530000  1
  Zr  Zr19  1  0.54531000  0.89117000  0.54530000  1
  Zr  Zr20  1  0.89117000  0.54531000  0.54530000  1
  Zr  Zr21  1  0.10883000  0.45469000  0.45470000  1
  Zr  Zr22  1  0.45469000  0.10883000  0.45470000  1
  Zr  Zr23  1  0.10883000  0.98178000  0.45470000  1
  Zr  Zr24  1  0.98178000  0.10883000  0.45470000  1
  Zr  Zr25  1  0.45469000  0.98178000  0.45470000  1
  Zr  Zr26  1  0.98178000  0.45469000  0.45470000  1
  Zr  Zr27  1  0.00000000  0.00000000  0.41066000  1
  Zr  Zr28  1  0.58934000  0.00000000  0.41066000  1
  Zr  Zr29  1  0.00000000  0.58934000  0.41066000  1
  Zr  Zr30  1  0.45469000  0.45469000  0.10884000  1
  Zr  Zr31  1  0.45469000  0.98178000  0.10884000  1
  Zr  Zr32  1  0.98178000  0.45469000  0.10884000  1
  Zr  Zr33  1  0.54531000  0.54531000  0.01821000  1
  Zr  Zr34  1  0.54531000  0.89117000  0.01821000  1
  Zr  Zr35  1  0.89117000  0.54531000  0.01821000  1
  H  H36  1  0.13260000  0.22100000  0.99040000  1
  H  H37  1  0.22100000  0.13260000  0.99040000  1
  H  H38  1  0.13260000  0.65600000  0.99040000  1
  H  H39  1  0.65600000  0.13260000  0.99040000  1
  H  H40  1  0.22100000  0.65600000  0.99040000  1
  H  H41  1  0.65600000  0.22100000  0.99040000  1
  H  H42  1  0.00960000  0.34400000  0.86740000  1
  H  H43  1  0.34400000  0.00960000  0.86740000  1
  H  H44  1  0.00960000  0.77900000  0.86740000  1
  H  H45  1  0.77900000  0.00960000  0.86740000  1
  H  H46  1  0.34400000  0.77900000  0.86740000  1
  H  H47  1  0.77900000  0.34400000  0.86740000  1
  H  H48  1  0.00960000  0.34400000  0.77900000  1
  H  H49  1  0.34400000  0.00960000  0.77900000  1
  H  H50  1  0.00960000  0.86740000  0.77900000  1
  H  H51  1  0.86740000  0.00960000  0.77900000  1
  H  H52  1  0.34400000  0.86740000  0.77900000  1
  H  H53  1  0.86740000  0.34400000  0.77900000  1
  H  H54  1  0.13260000  0.22100000  0.65600000  1
  H  H55  1  0.22100000  0.13260000  0.65600000  1
  H  H56  1  0.13260000  0.99040000  0.65600000  1
  H  H57  1  0.99040000  0.13260000  0.65600000  1
  H  H58  1  0.22100000  0.99040000  0.65600000  1
  H  H59  1  0.99040000  0.22100000  0.65600000  1
  H  H60  1  0.00960000  0.77900000  0.34400000  1
  H  H61  1  0.77900000  0.00960000  0.34400000  1
  H  H62  1  0.00960000  0.86740000  0.34400000  1
  H  H63  1  0.86740000  0.00960000  0.34400000  1
  H  H64  1  0.77900000  0.86740000  0.34400000  1
  H  H65  1  0.86740000  0.77900000  0.34400000  1
  H  H66  1  0.13260000  0.65600000  0.22100000  1
  H  H67  1  0.65600000  0.13260000  0.22100000  1
  H  H68  1  0.13260000  0.99040000  0.22100000  1
  H  H69  1  0.99040000  0.13260000  0.22100000  1
  H  H70  1  0.65600000  0.99040000  0.22100000  1
  H  H71  1  0.99040000  0.65600000  0.22100000  1
  H  H72  1  0.22100000  0.65600000  0.13260000  1
  H  H73  1  0.65600000  0.22100000  0.13260000  1
  H  H74  1  0.22100000  0.99040000  0.13260000  1
  H  H75  1  0.99040000  0.22100000  0.13260000  1
  H  H76  1  0.65600000  0.99040000  0.13260000  1
  H  H77  1  0.99040000  0.65600000  0.13260000  1
  H  H78  1  0.34400000  0.77900000  0.00960000  1
  H  H79  1  0.77900000  0.34400000  0.00960000  1
  H  H80  1  0.34400000  0.86740000  0.00960000  1
  H  H81  1  0.86740000  0.34400000  0.00960000  1
  H  H82  1  0.77900000  0.86740000  0.00960000  1
  H  H83  1  0.86740000  0.77900000  0.00960000  1
  C  C84  1  0.16860000  0.21960000  0.98660000  1
  C  C85  1  0.21960000  0.16860000  0.98660000  1
  C  C86  1  0.16860000  0.62520000  0.98660000  1
  C  C87  1  0.62520000  0.16860000  0.98660000  1
  C  C88  1  0.21960000  0.62520000  0.98660000  1
  C  C89  1  0.62520000  0.21960000  0.98660000  1
  C  C90  1  0.17799000  0.26629000  0.98043000  1
  C  C91  1  0.26629000  0.17799000  0.98043000  1
  C  C92  1  0.17799000  0.57529000  0.98043000  1
  C  C93  1  0.57529000  0.17799000  0.98043000  1
  C  C94  1  0.26629000  0.57529000  0.98043000  1
  C  C95  1  0.57529000  0.26629000  0.98043000  1
  C  C96  1  0.13463000  0.32629000  0.98029000  1
  C  C97  1  0.32629000  0.13463000  0.98029000  1
  C  C98  1  0.13463000  0.55879000  0.98029000  1
  C  C99  1  0.55879000  0.13463000  0.98029000  1
  C  C100  1  0.32629000  0.55879000  0.98029000  1
  C  C101  1  0.55879000  0.32629000  0.98029000  1
  C  C102  1  0.01971000  0.44121000  0.86537000  1
  C  C103  1  0.44121000  0.01971000  0.86537000  1
  C  C104  1  0.01971000  0.67371000  0.86537000  1
  C  C105  1  0.67371000  0.01971000  0.86537000  1
  C  C106  1  0.44121000  0.67371000  0.86537000  1
  C  C107  1  0.67371000  0.44121000  0.86537000  1
  C  C108  1  0.01340000  0.37480000  0.83140000  1
  C  C109  1  0.37480000  0.01340000  0.83140000  1
  C  C110  1  0.01340000  0.78040000  0.83140000  1
  C  C111  1  0.78040000  0.01340000  0.83140000  1
  C  C112  1  0.37480000  0.78040000  0.83140000  1
  C  C113  1  0.78040000  0.37480000  0.83140000  1
  C  C114  1  0.01957000  0.42471000  0.82201000  1
  C  C115  1  0.42471000  0.01957000  0.82201000  1
  C  C116  1  0.01957000  0.73371000  0.82201000  1
  C  C117  1  0.73371000  0.01957000  0.82201000  1
  C  C118  1  0.42471000  0.73371000  0.82201000  1
  C  C119  1  0.73371000  0.42471000  0.82201000  1
  C  C120  1  0.01340000  0.37480000  0.78040000  1
  C  C121  1  0.37480000  0.01340000  0.78040000  1
  C  C122  1  0.01340000  0.83140000  0.78040000  1
  C  C123  1  0.83140000  0.01340000  0.78040000  1
  C  C124  1  0.37480000  0.83140000  0.78040000  1
  C  C125  1  0.83140000  0.37480000  0.78040000  1
  C  C126  1  0.01957000  0.42471000  0.73371000  1
  C  C127  1  0.42471000  0.01957000  0.73371000  1
  C  C128  1  0.01957000  0.82201000  0.73371000  1
  C  C129  1  0.82201000  0.01957000  0.73371000  1
  C  C130  1  0.42471000  0.82201000  0.73371000  1
  C  C131  1  0.82201000  0.42471000  0.73371000  1
  C  C132  1  0.01971000  0.44121000  0.67371000  1
  C  C133  1  0.44121000  0.01971000  0.67371000  1
  C  C134  1  0.01971000  0.86537000  0.67371000  1
  C  C135  1  0.86537000  0.01971000  0.67371000  1
  C  C136  1  0.44121000  0.86537000  0.67371000  1
  C  C137  1  0.86537000  0.44121000  0.67371000  1
  C  C138  1  0.16860000  0.21960000  0.62520000  1
  C  C139  1  0.21960000  0.16860000  0.62520000  1
  C  C140  1  0.16860000  0.98660000  0.62520000  1
  C  C141  1  0.98660000  0.16860000  0.62520000  1
  C  C142  1  0.21960000  0.98660000  0.62520000  1
  C  C143  1  0.98660000  0.21960000  0.62520000  1
  C  C144  1  0.17799000  0.26629000  0.57529000  1
  C  C145  1  0.26629000  0.17799000  0.57529000  1
  C  C146  1  0.17799000  0.98043000  0.57529000  1
  C  C147  1  0.98043000  0.17799000  0.57529000  1
  C  C148  1  0.26629000  0.98043000  0.57529000  1
  C  C149  1  0.98043000  0.26629000  0.57529000  1
  C  C150  1  0.13463000  0.32629000  0.55879000  1
  C  C151  1  0.32629000  0.13463000  0.55879000  1
  C  C152  1  0.13463000  0.98029000  0.55879000  1
  C  C153  1  0.98029000  0.13463000  0.55879000  1
  C  C154  1  0.32629000  0.98029000  0.55879000  1
  C  C155  1  0.98029000  0.32629000  0.55879000  1
  C  C156  1  0.01971000  0.67371000  0.44121000  1
  C  C157  1  0.67371000  0.01971000  0.44121000  1
  C  C158  1  0.01971000  0.86537000  0.44121000  1
  C  C159  1  0.86537000  0.01971000  0.44121000  1
  C  C160  1  0.67371000  0.86537000  0.44121000  1
  C  C161  1  0.86537000  0.67371000  0.44121000  1
  C  C162  1  0.01957000  0.73371000  0.42471000  1
  C  C163  1  0.73371000  0.01957000  0.42471000  1
  C  C164  1  0.01957000  0.82201000  0.42471000  1
  C  C165  1  0.82201000  0.01957000  0.42471000  1
  C  C166  1  0.73371000  0.82201000  0.42471000  1
  C  C167  1  0.82201000  0.73371000  0.42471000  1
  C  C168  1  0.01340000  0.78040000  0.37480000  1
  C  C169  1  0.78040000  0.01340000  0.37480000  1
  C  C170  1  0.01340000  0.83140000  0.37480000  1
  C  C171  1  0.83140000  0.01340000  0.37480000  1
  C  C172  1  0.78040000  0.83140000  0.37480000  1
  C  C173  1  0.83140000  0.78040000  0.37480000  1
  C  C174  1  0.13463000  0.55879000  0.32629000  1
  C  C175  1  0.55879000  0.13463000  0.32629000  1
  C  C176  1  0.13463000  0.98029000  0.32629000  1
  C  C177  1  0.98029000  0.13463000  0.32629000  1
  C  C178  1  0.55879000  0.98029000  0.32629000  1
  C  C179  1  0.98029000  0.55879000  0.32629000  1
  C  C180  1  0.17799000  0.57529000  0.26629000  1
  C  C181  1  0.57529000  0.17799000  0.26629000  1
  C  C182  1  0.17799000  0.98043000  0.26629000  1
  C  C183  1  0.98043000  0.17799000  0.26629000  1
  C  C184  1  0.57529000  0.98043000  0.26629000  1
  C  C185  1  0.98043000  0.57529000  0.26629000  1
  C  C186  1  0.16860000  0.62520000  0.21960000  1
  C  C187  1  0.62520000  0.16860000  0.21960000  1
  C  C188  1  0.16860000  0.98660000  0.21960000  1
  C  C189  1  0.98660000  0.16860000  0.21960000  1
  C  C190  1  0.62520000  0.98660000  0.21960000  1
  C  C191  1  0.98660000  0.62520000  0.21960000  1
  C  C192  1  0.26629000  0.57529000  0.17799000  1
  C  C193  1  0.57529000  0.26629000  0.17799000  1
  C  C194  1  0.26629000  0.98043000  0.17799000  1
  C  C195  1  0.98043000  0.26629000  0.17799000  1
  C  C196  1  0.57529000  0.98043000  0.17799000  1
  C  C197  1  0.98043000  0.57529000  0.17799000  1
  C  C198  1  0.21960000  0.62520000  0.16860000  1
  C  C199  1  0.62520000  0.21960000  0.16860000  1
  C  C200  1  0.21960000  0.98660000  0.16860000  1
  C  C201  1  0.98660000  0.21960000  0.16860000  1
  C  C202  1  0.62520000  0.98660000  0.16860000  1
  C  C203  1  0.98660000  0.62520000  0.16860000  1
  C  C204  1  0.32629000  0.55879000  0.13463000  1
  C  C205  1  0.55879000  0.32629000  0.13463000  1
  C  C206  1  0.32629000  0.98029000  0.13463000  1
  C  C207  1  0.98029000  0.32629000  0.13463000  1
  C  C208  1  0.55879000  0.98029000  0.13463000  1
  C  C209  1  0.98029000  0.55879000  0.13463000  1
  C  C210  1  0.44121000  0.67371000  0.01971000  1
  C  C211  1  0.67371000  0.44121000  0.01971000  1
  C  C212  1  0.44121000  0.86537000  0.01971000  1
  C  C213  1  0.86537000  0.44121000  0.01971000  1
  C  C214  1  0.67371000  0.86537000  0.01971000  1
  C  C215  1  0.86537000  0.67371000  0.01971000  1
  C  C216  1  0.42471000  0.73371000  0.01957000  1
  C  C217  1  0.73371000  0.42471000  0.01957000  1
  C  C218  1  0.42471000  0.82201000  0.01957000  1
  C  C219  1  0.82201000  0.42471000  0.01957000  1
  C  C220  1  0.73371000  0.82201000  0.01957000  1
  C  C221  1  0.82201000  0.73371000  0.01957000  1
  C  C222  1  0.37480000  0.78040000  0.01340000  1
  C  C223  1  0.78040000  0.37480000  0.01340000  1
  C  C224  1  0.37480000  0.83140000  0.01340000  1
  C  C225  1  0.83140000  0.37480000  0.01340000  1
  C  C226  1  0.78040000  0.83140000  0.01340000  1
  C  C227  1  0.83140000  0.78040000  0.01340000  1
  S  S228  1  0.24868000  0.24868000  0.97496000  1
  S  S229  1  0.24868000  0.52768000  0.97496000  1
  S  S230  1  0.52768000  0.24868000  0.97496000  1
  S  S231  1  0.02504000  0.47232000  0.75132000  1
  S  S232  1  0.47232000  0.02504000  0.75132000  1
  S  S233  1  0.02504000  0.75132000  0.75132000  1
  S  S234  1  0.75132000  0.02504000  0.75132000  1
  S  S235  1  0.47232000  0.75132000  0.75132000  1
  S  S236  1  0.75132000  0.47232000  0.75132000  1
  S  S237  1  0.24868000  0.24868000  0.52768000  1
  S  S238  1  0.24868000  0.97496000  0.52768000  1
  S  S239  1  0.97496000  0.24868000  0.52768000  1
  S  S240  1  0.02504000  0.75132000  0.47232000  1
  S  S241  1  0.75132000  0.02504000  0.47232000  1
  S  S242  1  0.75132000  0.75132000  0.47232000  1
  S  S243  1  0.24868000  0.52768000  0.24868000  1
  S  S244  1  0.52768000  0.24868000  0.24868000  1
  S  S245  1  0.24868000  0.97496000  0.24868000  1
  S  S246  1  0.97496000  0.24868000  0.24868000  1
  S  S247  1  0.52768000  0.97496000  0.24868000  1
  S  S248  1  0.97496000  0.52768000  0.24868000  1
  S  S249  1  0.47232000  0.75132000  0.02504000  1
  S  S250  1  0.75132000  0.47232000  0.02504000  1
  S  S251  1  0.75132000  0.75132000  0.02504000  1
  O  O252  1  0.08296000  0.33540000  0.98564000  1
  O  O253  1  0.33540000  0.08296000  0.98564000  1
  O  O254  1  0.08296000  0.59600000  0.98564000  1
  O  O255  1  0.59600000  0.08296000  0.98564000  1
  O  O256  1  0.33540000  0.59600000  0.98564000  1
  O  O257  1  0.59600000  0.33540000  0.98564000  1
  O  O258  1  0.15288000  0.36218000  0.97598000  1
  O  O259  1  0.36218000  0.15288000  0.97598000  1
  O  O260  1  0.15288000  0.50896000  0.97598000  1
  O  O261  1  0.50896000  0.15288000  0.97598000  1
  O  O262  1  0.36218000  0.50896000  0.97598000  1
  O  O263  1  0.50896000  0.36218000  0.97598000  1
  O  O264  1  0.50130000  0.58630000  0.95620000  1
  O  O265  1  0.58630000  0.50130000  0.95620000  1
  O  O266  1  0.50130000  0.95620000  0.95620000  1
  O  O267  1  0.95620000  0.50130000  0.95620000  1
  O  O268  1  0.58630000  0.95620000  0.95620000  1
  O  O269  1  0.95620000  0.58630000  0.95620000  1
  O  O270  1  0.06356000  0.45656000  0.93644000  1
  O  O271  1  0.45656000  0.06356000  0.93644000  1
  O  O272  1  0.06356000  0.54344000  0.93644000  1
  O  O273  1  0.54344000  0.06356000  0.93644000  1
  O  O274  1  0.45656000  0.54344000  0.93644000  1
  O  O275  1  0.54344000  0.45656000  0.93644000  1
  O  O276  1  0.01436000  0.40400000  0.91704000  1
  O  O277  1  0.40400000  0.01436000  0.91704000  1
  O  O278  1  0.01436000  0.66460000  0.91704000  1
  O  O279  1  0.66460000  0.01436000  0.91704000  1
  O  O280  1  0.40400000  0.66460000  0.91704000  1
  O  O281  1  0.66460000  0.40400000  0.91704000  1
  O  O282  1  0.02402000  0.49104000  0.84712000  1
  O  O283  1  0.49104000  0.02402000  0.84712000  1
  O  O284  1  0.02402000  0.63782000  0.84712000  1
  O  O285  1  0.63782000  0.02402000  0.84712000  1
  O  O286  1  0.49104000  0.63782000  0.84712000  1
  O  O287  1  0.63782000  0.49104000  0.84712000  1
  O  O288  1  0.01436000  0.40400000  0.66460000  1
  O  O289  1  0.40400000  0.01436000  0.66460000  1
  O  O290  1  0.01436000  0.91704000  0.66460000  1
  O  O291  1  0.91704000  0.01436000  0.66460000  1
  O  O292  1  0.40400000  0.91704000  0.66460000  1
  O  O293  1  0.91704000  0.40400000  0.66460000  1
  O  O294  1  0.02402000  0.49104000  0.63782000  1
  O  O295  1  0.49104000  0.02402000  0.63782000  1
  O  O296  1  0.02402000  0.84712000  0.63782000  1
  O  O297  1  0.84712000  0.02402000  0.63782000  1
  O  O298  1  0.49104000  0.84712000  0.63782000  1
  O  O299  1  0.84712000  0.49104000  0.63782000  1
  O  O300  1  0.08296000  0.33540000  0.59600000  1
  O  O301  1  0.33540000  0.08296000  0.59600000  1
  O  O302  1  0.08296000  0.98564000  0.59600000  1
  O  O303  1  0.98564000  0.08296000  0.59600000  1
  O  O304  1  0.33540000  0.98564000  0.59600000  1
  O  O305  1  0.98564000  0.33540000  0.59600000  1
  O  O306  1  0.50130000  0.95620000  0.58630000  1
  O  O307  1  0.95620000  0.50130000  0.58630000  1
  O  O308  1  0.95620000  0.95620000  0.58630000  1
  O  O309  1  0.06356000  0.45656000  0.54344000  1
  O  O310  1  0.45656000  0.06356000  0.54344000  1
  O  O311  1  0.06356000  0.93644000  0.54344000  1
  O  O312  1  0.93644000  0.06356000  0.54344000  1
  O  O313  1  0.45656000  0.93644000  0.54344000  1
  O  O314  1  0.93644000  0.45656000  0.54344000  1
  O  O315  1  0.15288000  0.36218000  0.50896000  1
  O  O316  1  0.36218000  0.15288000  0.50896000  1
  O  O317  1  0.15288000  0.97598000  0.50896000  1
  O  O318  1  0.97598000  0.15288000  0.50896000  1
  O  O319  1  0.36218000  0.97598000  0.50896000  1
  O  O320  1  0.97598000  0.36218000  0.50896000  1
  O  O321  1  0.58630000  0.95620000  0.50130000  1
  O  O322  1  0.95620000  0.58630000  0.50130000  1
  O  O323  1  0.95620000  0.95620000  0.50130000  1
  O  O324  1  0.04380000  0.04380000  0.49870000  1
  O  O325  1  0.04380000  0.41370000  0.49870000  1
  O  O326  1  0.41370000  0.04380000  0.49870000  1
  O  O327  1  0.02402000  0.63782000  0.49104000  1
  O  O328  1  0.63782000  0.02402000  0.49104000  1
  O  O329  1  0.02402000  0.84712000  0.49104000  1
  O  O330  1  0.84712000  0.02402000  0.49104000  1
  O  O331  1  0.63782000  0.84712000  0.49104000  1
  O  O332  1  0.84712000  0.63782000  0.49104000  1
  O  O333  1  0.06356000  0.54344000  0.45656000  1
  O  O334  1  0.54344000  0.06356000  0.45656000  1
  O  O335  1  0.06356000  0.93644000  0.45656000  1
  O  O336  1  0.93644000  0.06356000  0.45656000  1
  O  O337  1  0.54344000  0.93644000  0.45656000  1
  O  O338  1  0.93644000  0.54344000  0.45656000  1
  O  O339  1  0.04380000  0.04380000  0.41370000  1
  O  O340  1  0.04380000  0.49870000  0.41370000  1
  O  O341  1  0.49870000  0.04380000  0.41370000  1
  O  O342  1  0.01436000  0.66460000  0.40400000  1
  O  O343  1  0.66460000  0.01436000  0.40400000  1
  O  O344  1  0.01436000  0.91704000  0.40400000  1
  O  O345  1  0.91704000  0.01436000  0.40400000  1
  O  O346  1  0.66460000  0.91704000  0.40400000  1
  O  O347  1  0.91704000  0.66460000  0.40400000  1
  O  O348  1  0.15288000  0.50896000  0.36218000  1
  O  O349  1  0.50896000  0.15288000  0.36218000  1
  O  O350  1  0.15288000  0.97598000  0.36218000  1
  O  O351  1  0.97598000  0.15288000  0.36218000  1
  O  O352  1  0.50896000  0.97598000  0.36218000  1
  O  O353  1  0.97598000  0.50896000  0.36218000  1
  O  O354  1  0.08296000  0.59600000  0.33540000  1
  O  O355  1  0.59600000  0.08296000  0.33540000  1
  O  O356  1  0.08296000  0.98564000  0.33540000  1
  O  O357  1  0.98564000  0.08296000  0.33540000  1
  O  O358  1  0.59600000  0.98564000  0.33540000  1
  O  O359  1  0.98564000  0.59600000  0.33540000  1
  O  O360  1  0.36218000  0.50896000  0.15288000  1
  O  O361  1  0.50896000  0.36218000  0.15288000  1
  O  O362  1  0.36218000  0.97598000  0.15288000  1
  O  O363  1  0.97598000  0.36218000  0.15288000  1
  O  O364  1  0.50896000  0.97598000  0.15288000  1
  O  O365  1  0.97598000  0.50896000  0.15288000  1
  O  O366  1  0.33540000  0.59600000  0.08296000  1
  O  O367  1  0.59600000  0.33540000  0.08296000  1
  O  O368  1  0.33540000  0.98564000  0.08296000  1
  O  O369  1  0.98564000  0.33540000  0.08296000  1
  O  O370  1  0.59600000  0.98564000  0.08296000  1
  O  O371  1  0.98564000  0.59600000  0.08296000  1
  O  O372  1  0.45656000  0.54344000  0.06356000  1
  O  O373  1  0.54344000  0.45656000  0.06356000  1
  O  O374  1  0.45656000  0.93644000  0.06356000  1
  O  O375  1  0.93644000  0.45656000  0.06356000  1
  O  O376  1  0.54344000  0.93644000  0.06356000  1
  O  O377  1  0.93644000  0.54344000  0.06356000  1
  O  O378  1  0.04380000  0.41370000  0.04380000  1
  O  O379  1  0.41370000  0.04380000  0.04380000  1
  O  O380  1  0.04380000  0.49870000  0.04380000  1
  O  O381  1  0.49870000  0.04380000  0.04380000  1
  O  O382  1  0.41370000  0.49870000  0.04380000  1
  O  O383  1  0.49870000  0.41370000  0.04380000  1
  O  O384  1  0.49104000  0.63782000  0.02402000  1
  O  O385  1  0.63782000  0.49104000  0.02402000  1
  O  O386  1  0.49104000  0.84712000  0.02402000  1
  O  O387  1  0.84712000  0.49104000  0.02402000  1
  O  O388  1  0.63782000  0.84712000  0.02402000  1
  O  O389  1  0.84712000  0.63782000  0.02402000  1
  O  O390  1  0.40400000  0.66460000  0.01436000  1
  O  O391  1  0.66460000  0.40400000  0.01436000  1
  O  O392  1  0.40400000  0.91704000  0.01436000  1
  O  O393  1  0.91704000  0.40400000  0.01436000  1
  O  O394  1  0.66460000  0.91704000  0.01436000  1
  O  O395  1  0.91704000  0.66460000  0.01436000  1
