# generated using pymatgen
data_Eu2Cd3H12(C3O2)12
_symmetry_space_group_name_H-M   'P 1'
_cell_length_a   19.49110000
_cell_length_b   19.49110000
_cell_length_c   26.29950000
_cell_angle_alpha   90.00000000
_cell_angle_beta   90.00000000
_cell_angle_gamma   90.00000000
_symmetry_Int_Tables_number   1
_chemical_formula_structural   Eu2Cd3H12(C3O2)12
_chemical_formula_sum   'Eu8 Cd12 H48 C144 O96'
_cell_volume   9991.25840173
_cell_formula_units_Z   4
loop_
 _symmetry_equiv_pos_site_id
 _symmetry_equiv_pos_as_xyz
  1  'x, y, z'
loop_
 _atom_site_type_symbol
 _atom_site_label
 _atom_site_symmetry_multiplicity
 _atom_site_fract_x
 _atom_site_fract_y
 _atom_site_fract_z
 _atom_site_occupancy
  Eu  Eu0  1  0.05653000  0.05653000  0.69741000  1
  Eu  Eu1  1  0.05653000  0.44347000  0.19741000  1
  Eu  Eu2  1  0.44347000  0.05653000  0.19741000  1
  Eu  Eu3  1  0.44347000  0.44347000  0.69741000  1
  Eu  Eu4  1  0.55653000  0.55653000  0.30259000  1
  Eu  Eu5  1  0.55653000  0.94347000  0.80259000  1
  Eu  Eu6  1  0.94347000  0.55653000  0.80259000  1
  Eu  Eu7  1  0.94347000  0.94347000  0.30259000  1
  Cd  Cd8  1  0.03243000  0.03243000  0.19633000  1
  Cd  Cd9  1  0.03243000  0.46757000  0.69633000  1
  Cd  Cd10  1  0.25000000  0.75000000  0.00000000  1
  Cd  Cd11  1  0.25000000  0.75000000  0.50000000  1
  Cd  Cd12  1  0.46757000  0.03243000  0.69633000  1
  Cd  Cd13  1  0.46757000  0.46757000  0.19633000  1
  Cd  Cd14  1  0.53243000  0.53243000  0.80367000  1
  Cd  Cd15  1  0.53243000  0.96757000  0.30367000  1
  Cd  Cd16  1  0.75000000  0.25000000  0.00000000  1
  Cd  Cd17  1  0.75000000  0.25000000  0.50000000  1
  Cd  Cd18  1  0.96757000  0.53243000  0.30367000  1
  Cd  Cd19  1  0.96757000  0.96757000  0.80367000  1
  H  H20  1  0.01110000  0.24810000  0.76820000  1
  H  H21  1  0.01110000  0.25190000  0.26820000  1
  H  H22  1  0.08980000  0.66480000  0.61540000  1
  H  H23  1  0.08980000  0.83520000  0.11540000  1
  H  H24  1  0.09240000  0.63130000  0.13590000  1
  H  H25  1  0.09240000  0.86870000  0.63590000  1
  H  H26  1  0.13130000  0.59240000  0.86410000  1
  H  H27  1  0.13130000  0.90760000  0.36410000  1
  H  H28  1  0.16480000  0.58980000  0.38460000  1
  H  H29  1  0.16480000  0.91020000  0.88460000  1
  H  H30  1  0.24810000  0.01110000  0.76820000  1
  H  H31  1  0.24810000  0.48890000  0.26820000  1
  H  H32  1  0.25190000  0.01110000  0.26820000  1
  H  H33  1  0.25190000  0.48890000  0.76820000  1
  H  H34  1  0.33520000  0.58980000  0.88460000  1
  H  H35  1  0.33520000  0.91020000  0.38460000  1
  H  H36  1  0.36870000  0.59240000  0.36410000  1
  H  H37  1  0.36870000  0.90760000  0.86410000  1
  H  H38  1  0.40760000  0.63130000  0.63590000  1
  H  H39  1  0.40760000  0.86870000  0.13590000  1
  H  H40  1  0.41020000  0.66480000  0.11540000  1
  H  H41  1  0.41020000  0.83520000  0.61540000  1
  H  H42  1  0.48890000  0.24810000  0.26820000  1
  H  H43  1  0.48890000  0.25190000  0.76820000  1
  H  H44  1  0.51110000  0.74810000  0.23180000  1
  H  H45  1  0.51110000  0.75190000  0.73180000  1
  H  H46  1  0.58980000  0.16480000  0.38460000  1
  H  H47  1  0.58980000  0.33520000  0.88460000  1
  H  H48  1  0.59240000  0.13130000  0.86410000  1
  H  H49  1  0.59240000  0.36870000  0.36410000  1
  H  H50  1  0.63130000  0.09240000  0.13590000  1
  H  H51  1  0.63130000  0.40760000  0.63590000  1
  H  H52  1  0.66480000  0.08980000  0.61540000  1
  H  H53  1  0.66480000  0.41020000  0.11540000  1
  H  H54  1  0.74810000  0.51110000  0.23180000  1
  H  H55  1  0.74810000  0.98890000  0.73180000  1
  H  H56  1  0.75190000  0.51110000  0.73180000  1
  H  H57  1  0.75190000  0.98890000  0.23180000  1
  H  H58  1  0.83520000  0.08980000  0.11540000  1
  H  H59  1  0.83520000  0.41020000  0.61540000  1
  H  H60  1  0.86870000  0.09240000  0.63590000  1
  H  H61  1  0.86870000  0.40760000  0.13590000  1
  H  H62  1  0.90760000  0.13130000  0.36410000  1
  H  H63  1  0.90760000  0.36870000  0.86410000  1
  H  H64  1  0.91020000  0.16480000  0.88460000  1
  H  H65  1  0.91020000  0.33520000  0.38460000  1
  H  H66  1  0.98890000  0.74810000  0.73180000  1
  H  H67  1  0.98890000  0.75190000  0.23180000  1
  C  C68  1  0.01650000  0.74680000  0.20320000  1
  C  C69  1  0.01650000  0.75320000  0.70320000  1
  C  C70  1  0.01720000  0.61980000  0.21900000  1
  C  C71  1  0.01720000  0.88020000  0.71900000  1
  C  C72  1  0.01790000  0.62590000  0.69430000  1
  C  C73  1  0.01790000  0.87410000  0.19430000  1
  C  C74  1  0.03620000  0.69690000  0.67600000  1
  C  C75  1  0.03620000  0.80310000  0.17600000  1
  C  C76  1  0.03780000  0.68210000  0.18820000  1
  C  C77  1  0.03780000  0.81790000  0.68820000  1
  C  C78  1  0.07700000  0.70350000  0.63390000  1
  C  C79  1  0.07700000  0.79650000  0.13390000  1
  C  C80  1  0.07850000  0.67480000  0.14610000  1
  C  C81  1  0.07850000  0.82520000  0.64610000  1
  C  C82  1  0.09910000  0.73190000  0.11880000  1
  C  C83  1  0.09910000  0.76810000  0.61880000  1
  C  C84  1  0.11980000  0.51720000  0.78100000  1
  C  C85  1  0.11980000  0.98280000  0.28100000  1
  C  C86  1  0.12590000  0.51790000  0.30570000  1
  C  C87  1  0.12590000  0.98210000  0.80570000  1
  C  C88  1  0.14740000  0.72510000  0.07470000  1
  C  C89  1  0.14740000  0.77490000  0.57470000  1
  C  C90  1  0.17480000  0.57850000  0.85390000  1
  C  C91  1  0.17480000  0.92150000  0.35390000  1
  C  C92  1  0.18210000  0.53780000  0.81180000  1
  C  C93  1  0.18210000  0.96220000  0.31180000  1
  C  C94  1  0.19690000  0.53620000  0.32400000  1
  C  C95  1  0.19690000  0.96380000  0.82400000  1
  C  C96  1  0.20350000  0.57700000  0.36610000  1
  C  C97  1  0.20350000  0.92300000  0.86610000  1
  C  C98  1  0.22510000  0.64740000  0.92530000  1
  C  C99  1  0.22510000  0.85260000  0.42530000  1
  C  C100  1  0.23190000  0.59910000  0.88120000  1
  C  C101  1  0.23190000  0.90090000  0.38120000  1
  C  C102  1  0.24680000  0.51650000  0.79680000  1
  C  C103  1  0.24680000  0.98350000  0.29680000  1
  C  C104  1  0.25320000  0.51650000  0.29680000  1
  C  C105  1  0.25320000  0.98350000  0.79680000  1
  C  C106  1  0.26810000  0.59910000  0.38120000  1
  C  C107  1  0.26810000  0.90090000  0.88120000  1
  C  C108  1  0.27490000  0.64740000  0.42530000  1
  C  C109  1  0.27490000  0.85260000  0.92530000  1
  C  C110  1  0.29650000  0.57700000  0.86610000  1
  C  C111  1  0.29650000  0.92300000  0.36610000  1
  C  C112  1  0.30310000  0.53620000  0.82400000  1
  C  C113  1  0.30310000  0.96380000  0.32400000  1
  C  C114  1  0.31790000  0.53780000  0.31180000  1
  C  C115  1  0.31790000  0.96220000  0.81180000  1
  C  C116  1  0.32520000  0.57850000  0.35390000  1
  C  C117  1  0.32520000  0.92150000  0.85390000  1
  C  C118  1  0.35260000  0.72510000  0.57470000  1
  C  C119  1  0.35260000  0.77490000  0.07470000  1
  C  C120  1  0.37410000  0.51790000  0.80570000  1
  C  C121  1  0.37410000  0.98210000  0.30570000  1
  C  C122  1  0.38020000  0.51720000  0.28100000  1
  C  C123  1  0.38020000  0.98280000  0.78100000  1
  C  C124  1  0.40090000  0.73190000  0.61880000  1
  C  C125  1  0.40090000  0.76810000  0.11880000  1
  C  C126  1  0.42150000  0.67480000  0.64610000  1
  C  C127  1  0.42150000  0.82520000  0.14610000  1
  C  C128  1  0.42300000  0.70350000  0.13390000  1
  C  C129  1  0.42300000  0.79650000  0.63390000  1
  C  C130  1  0.46220000  0.68210000  0.68820000  1
  C  C131  1  0.46220000  0.81790000  0.18820000  1
  C  C132  1  0.46380000  0.69690000  0.17600000  1
  C  C133  1  0.46380000  0.80310000  0.67600000  1
  C  C134  1  0.48210000  0.62590000  0.19430000  1
  C  C135  1  0.48210000  0.87410000  0.69430000  1
  C  C136  1  0.48280000  0.61980000  0.71900000  1
  C  C137  1  0.48280000  0.88020000  0.21900000  1
  C  C138  1  0.48350000  0.74680000  0.70320000  1
  C  C139  1  0.48350000  0.75320000  0.20320000  1
  C  C140  1  0.51650000  0.24680000  0.79680000  1
  C  C141  1  0.51650000  0.25320000  0.29680000  1
  C  C142  1  0.51720000  0.11980000  0.78100000  1
  C  C143  1  0.51720000  0.38020000  0.28100000  1
  C  C144  1  0.51790000  0.12590000  0.30570000  1
  C  C145  1  0.51790000  0.37410000  0.80570000  1
  C  C146  1  0.53620000  0.19690000  0.32400000  1
  C  C147  1  0.53620000  0.30310000  0.82400000  1
  C  C148  1  0.53780000  0.18210000  0.81180000  1
  C  C149  1  0.53780000  0.31790000  0.31180000  1
  C  C150  1  0.57700000  0.20350000  0.36610000  1
  C  C151  1  0.57700000  0.29650000  0.86610000  1
  C  C152  1  0.57850000  0.17480000  0.85390000  1
  C  C153  1  0.57850000  0.32520000  0.35390000  1
  C  C154  1  0.59910000  0.23190000  0.88120000  1
  C  C155  1  0.59910000  0.26810000  0.38120000  1
  C  C156  1  0.61980000  0.01720000  0.21900000  1
  C  C157  1  0.61980000  0.48280000  0.71900000  1
  C  C158  1  0.62590000  0.01790000  0.69430000  1
  C  C159  1  0.62590000  0.48210000  0.19430000  1
  C  C160  1  0.64740000  0.22510000  0.92530000  1
  C  C161  1  0.64740000  0.27490000  0.42530000  1
  C  C162  1  0.67480000  0.07850000  0.14610000  1
  C  C163  1  0.67480000  0.42150000  0.64610000  1
  C  C164  1  0.68210000  0.03780000  0.18820000  1
  C  C165  1  0.68210000  0.46220000  0.68820000  1
  C  C166  1  0.69690000  0.03620000  0.67600000  1
  C  C167  1  0.69690000  0.46380000  0.17600000  1
  C  C168  1  0.70350000  0.07700000  0.63390000  1
  C  C169  1  0.70350000  0.42300000  0.13390000  1
  C  C170  1  0.72510000  0.14740000  0.07470000  1
  C  C171  1  0.72510000  0.35260000  0.57470000  1
  C  C172  1  0.73190000  0.09910000  0.11880000  1
  C  C173  1  0.73190000  0.40090000  0.61880000  1
  C  C174  1  0.74680000  0.01650000  0.20320000  1
  C  C175  1  0.74680000  0.48350000  0.70320000  1
  C  C176  1  0.75320000  0.01650000  0.70320000  1
  C  C177  1  0.75320000  0.48350000  0.20320000  1
  C  C178  1  0.76810000  0.09910000  0.61880000  1
  C  C179  1  0.76810000  0.40090000  0.11880000  1
  C  C180  1  0.77490000  0.14740000  0.57470000  1
  C  C181  1  0.77490000  0.35260000  0.07470000  1
  C  C182  1  0.79650000  0.07700000  0.13390000  1
  C  C183  1  0.79650000  0.42300000  0.63390000  1
  C  C184  1  0.80310000  0.03620000  0.17600000  1
  C  C185  1  0.80310000  0.46380000  0.67600000  1
  C  C186  1  0.81790000  0.03780000  0.68820000  1
  C  C187  1  0.81790000  0.46220000  0.18820000  1
  C  C188  1  0.82520000  0.07850000  0.64610000  1
  C  C189  1  0.82520000  0.42150000  0.14610000  1
  C  C190  1  0.85260000  0.22510000  0.42530000  1
  C  C191  1  0.85260000  0.27490000  0.92530000  1
  C  C192  1  0.87410000  0.01790000  0.19430000  1
  C  C193  1  0.87410000  0.48210000  0.69430000  1
  C  C194  1  0.88020000  0.01720000  0.71900000  1
  C  C195  1  0.88020000  0.48280000  0.21900000  1
  C  C196  1  0.90090000  0.23190000  0.38120000  1
  C  C197  1  0.90090000  0.26810000  0.88120000  1
  C  C198  1  0.92150000  0.17480000  0.35390000  1
  C  C199  1  0.92150000  0.32520000  0.85390000  1
  C  C200  1  0.92300000  0.20350000  0.86610000  1
  C  C201  1  0.92300000  0.29650000  0.36610000  1
  C  C202  1  0.96220000  0.18210000  0.31180000  1
  C  C203  1  0.96220000  0.31790000  0.81180000  1
  C  C204  1  0.96380000  0.19690000  0.82400000  1
  C  C205  1  0.96380000  0.30310000  0.32400000  1
  C  C206  1  0.98210000  0.12590000  0.80570000  1
  C  C207  1  0.98210000  0.37410000  0.30570000  1
  C  C208  1  0.98280000  0.11980000  0.28100000  1
  C  C209  1  0.98280000  0.38020000  0.78100000  1
  C  C210  1  0.98350000  0.24680000  0.29680000  1
  C  C211  1  0.98350000  0.25320000  0.79680000  1
  O  O212  1  0.01610000  0.12960000  0.24070000  1
  O  O213  1  0.01610000  0.37040000  0.74070000  1
  O  O214  1  0.01830000  0.11990000  0.76780000  1
  O  O215  1  0.01830000  0.38010000  0.26780000  1
  O  O216  1  0.03810000  0.56360000  0.20530000  1
  O  O217  1  0.03810000  0.93640000  0.70530000  1
  O  O218  1  0.04050000  0.57610000  0.66950000  1
  O  O219  1  0.04050000  0.92390000  0.16950000  1
  O  O220  1  0.06360000  0.53810000  0.79470000  1
  O  O221  1  0.06360000  0.96190000  0.29470000  1
  O  O222  1  0.07610000  0.54050000  0.33050000  1
  O  O223  1  0.07610000  0.95950000  0.83050000  1
  O  O224  1  0.11990000  0.01830000  0.76780000  1
  O  O225  1  0.11990000  0.48170000  0.26780000  1
  O  O226  1  0.12960000  0.01610000  0.24070000  1
  O  O227  1  0.12960000  0.48390000  0.74070000  1
  O  O228  1  0.16490000  0.72060000  0.55160000  1
  O  O229  1  0.16490000  0.77940000  0.05160000  1
  O  O230  1  0.16800000  0.67200000  0.93600000  1
  O  O231  1  0.16800000  0.82800000  0.43600000  1
  O  O232  1  0.17200000  0.66800000  0.06400000  1
  O  O233  1  0.17200000  0.83200000  0.56400000  1
  O  O234  1  0.22060000  0.66490000  0.44840000  1
  O  O235  1  0.22060000  0.83510000  0.94840000  1
  O  O236  1  0.27940000  0.66490000  0.94840000  1
  O  O237  1  0.27940000  0.83510000  0.44840000  1
  O  O238  1  0.32800000  0.66800000  0.56400000  1
  O  O239  1  0.32800000  0.83200000  0.06400000  1
  O  O240  1  0.33200000  0.67200000  0.43600000  1
  O  O241  1  0.33200000  0.82800000  0.93600000  1
  O  O242  1  0.33510000  0.72060000  0.05160000  1
  O  O243  1  0.33510000  0.77940000  0.55160000  1
  O  O244  1  0.37040000  0.01610000  0.74070000  1
  O  O245  1  0.37040000  0.48390000  0.24070000  1
  O  O246  1  0.38010000  0.01830000  0.26780000  1
  O  O247  1  0.38010000  0.48170000  0.76780000  1
  O  O248  1  0.42390000  0.54050000  0.83050000  1
  O  O249  1  0.42390000  0.95950000  0.33050000  1
  O  O250  1  0.43640000  0.53810000  0.29470000  1
  O  O251  1  0.43640000  0.96190000  0.79470000  1
  O  O252  1  0.45950000  0.57610000  0.16950000  1
  O  O253  1  0.45950000  0.92390000  0.66950000  1
  O  O254  1  0.46190000  0.56360000  0.70530000  1
  O  O255  1  0.46190000  0.93640000  0.20530000  1
  O  O256  1  0.48170000  0.11990000  0.26780000  1
  O  O257  1  0.48170000  0.38010000  0.76780000  1
  O  O258  1  0.48390000  0.12960000  0.74070000  1
  O  O259  1  0.48390000  0.37040000  0.24070000  1
  O  O260  1  0.51610000  0.62960000  0.75930000  1
  O  O261  1  0.51610000  0.87040000  0.25930000  1
  O  O262  1  0.51830000  0.61990000  0.23220000  1
  O  O263  1  0.51830000  0.88010000  0.73220000  1
  O  O264  1  0.53810000  0.06360000  0.79470000  1
  O  O265  1  0.53810000  0.43640000  0.29470000  1
  O  O266  1  0.54050000  0.07610000  0.33050000  1
  O  O267  1  0.54050000  0.42390000  0.83050000  1
  O  O268  1  0.56360000  0.03810000  0.20530000  1
  O  O269  1  0.56360000  0.46190000  0.70530000  1
  O  O270  1  0.57610000  0.04050000  0.66950000  1
  O  O271  1  0.57610000  0.45950000  0.16950000  1
  O  O272  1  0.61990000  0.51830000  0.23220000  1
  O  O273  1  0.61990000  0.98170000  0.73220000  1
  O  O274  1  0.62960000  0.51610000  0.75930000  1
  O  O275  1  0.62960000  0.98390000  0.25930000  1
  O  O276  1  0.66490000  0.22060000  0.44840000  1
  O  O277  1  0.66490000  0.27940000  0.94840000  1
  O  O278  1  0.66800000  0.17200000  0.06400000  1
  O  O279  1  0.66800000  0.32800000  0.56400000  1
  O  O280  1  0.67200000  0.16800000  0.93600000  1
  O  O281  1  0.67200000  0.33200000  0.43600000  1
  O  O282  1  0.72060000  0.16490000  0.55160000  1
  O  O283  1  0.72060000  0.33510000  0.05160000  1
  O  O284  1  0.77940000  0.16490000  0.05160000  1
  O  O285  1  0.77940000  0.33510000  0.55160000  1
  O  O286  1  0.82800000  0.16800000  0.43600000  1
  O  O287  1  0.82800000  0.33200000  0.93600000  1
  O  O288  1  0.83200000  0.17200000  0.56400000  1
  O  O289  1  0.83200000  0.32800000  0.06400000  1
  O  O290  1  0.83510000  0.22060000  0.94840000  1
  O  O291  1  0.83510000  0.27940000  0.44840000  1
  O  O292  1  0.87040000  0.51610000  0.25930000  1
  O  O293  1  0.87040000  0.98390000  0.75930000  1
  O  O294  1  0.88010000  0.51830000  0.73220000  1
  O  O295  1  0.88010000  0.98170000  0.23220000  1
  O  O296  1  0.92390000  0.04050000  0.16950000  1
  O  O297  1  0.92390000  0.45950000  0.66950000  1
  O  O298  1  0.93640000  0.03810000  0.70530000  1
  O  O299  1  0.93640000  0.46190000  0.20530000  1
  O  O300  1  0.95950000  0.07610000  0.83050000  1
  O  O301  1  0.95950000  0.42390000  0.33050000  1
  O  O302  1  0.96190000  0.06360000  0.29470000  1
  O  O303  1  0.96190000  0.43640000  0.79470000  1
  O  O304  1  0.98170000  0.61990000  0.73220000  1
  O  O305  1  0.98170000  0.88010000  0.23220000  1
  O  O306  1  0.98390000  0.62960000  0.25930000  1
  O  O307  1  0.98390000  0.87040000  0.75930000  1
