# generated using pymatgen
data_ZnH14C18(NO2)2
_symmetry_space_group_name_H-M   'P 1'
_cell_length_a   13.73720000
_cell_length_b   14.77310000
_cell_length_c   21.07500000
_cell_angle_alpha   90.00000000
_cell_angle_beta   90.00000000
_cell_angle_gamma   90.00000000
_symmetry_Int_Tables_number   1
_chemical_formula_structural   ZnH14C18(NO2)2
_chemical_formula_sum   'Zn8 H112 C144 N16 O32'
_cell_volume   4276.98219292
_cell_formula_units_Z   8
loop_
 _symmetry_equiv_pos_site_id
 _symmetry_equiv_pos_as_xyz
  1  'x, y, z'
loop_
 _atom_site_type_symbol
 _atom_site_label
 _atom_site_symmetry_multiplicity
 _atom_site_fract_x
 _atom_site_fract_y
 _atom_site_fract_z
 _atom_site_occupancy
  Zn  Zn0  1  0.02877000  0.09766000  0.56161000  1
  Zn  Zn1  1  0.02877000  0.40234000  0.06161000  1
  Zn  Zn2  1  0.47123000  0.59766000  0.56161000  1
  Zn  Zn3  1  0.47123000  0.90234000  0.06161000  1
  Zn  Zn4  1  0.52877000  0.09766000  0.93839000  1
  Zn  Zn5  1  0.52877000  0.40234000  0.43839000  1
  Zn  Zn6  1  0.97123000  0.59766000  0.93839000  1
  Zn  Zn7  1  0.97123000  0.90234000  0.43839000  1
  H  H8  1  0.00790000  0.08960000  0.29250000  1
  H  H9  1  0.00790000  0.41040000  0.79250000  1
  H  H10  1  0.01340000  0.13410000  0.17990000  1
  H  H11  1  0.01340000  0.36590000  0.67990000  1
  H  H12  1  0.02060000  0.04490000  0.87900000  1
  H  H13  1  0.02060000  0.45510000  0.37900000  1
  H  H14  1  0.02960000  0.23420000  0.37460000  1
  H  H15  1  0.02960000  0.26580000  0.87460000  1
  H  H16  1  0.03160000  0.22210000  0.76300000  1
  H  H17  1  0.03160000  0.27790000  0.26300000  1
  H  H18  1  0.03640000  0.12950000  0.99510000  1
  H  H19  1  0.03640000  0.37050000  0.49510000  1
  H  H20  1  0.11690000  0.64120000  0.49030000  1
  H  H21  1  0.11690000  0.85880000  0.99030000  1
  H  H22  1  0.14040000  0.67370000  0.02260000  1
  H  H23  1  0.14040000  0.82630000  0.52260000  1
  H  H24  1  0.14490000  0.51460000  0.65870000  1
  H  H25  1  0.14490000  0.98540000  0.15870000  1
  H  H26  1  0.15300000  0.53070000  0.86650000  1
  H  H27  1  0.15300000  0.96930000  0.36650000  1
  H  H28  1  0.18100000  0.02780000  0.87040000  1
  H  H29  1  0.18100000  0.47220000  0.37040000  1
  H  H30  1  0.18960000  0.02570000  0.64790000  1
  H  H31  1  0.18960000  0.47430000  0.14790000  1
  H  H32  1  0.19320000  0.17290000  0.03180000  1
  H  H33  1  0.19320000  0.32710000  0.53180000  1
  H  H34  1  0.21750000  0.14860000  0.48500000  1
  H  H35  1  0.21750000  0.35140000  0.98500000  1
  H  H36  1  0.28250000  0.64860000  0.48500000  1
  H  H37  1  0.28250000  0.85140000  0.98500000  1
  H  H38  1  0.30680000  0.67290000  0.03180000  1
  H  H39  1  0.30680000  0.82710000  0.53180000  1
  H  H40  1  0.31040000  0.52570000  0.64790000  1
  H  H41  1  0.31040000  0.97430000  0.14790000  1
  H  H42  1  0.31900000  0.52780000  0.87040000  1
  H  H43  1  0.31900000  0.97220000  0.37040000  1
  H  H44  1  0.34700000  0.03070000  0.86650000  1
  H  H45  1  0.34700000  0.46930000  0.36650000  1
  H  H46  1  0.35510000  0.01460000  0.65870000  1
  H  H47  1  0.35510000  0.48540000  0.15870000  1
  H  H48  1  0.35960000  0.17370000  0.02260000  1
  H  H49  1  0.35960000  0.32630000  0.52260000  1
  H  H50  1  0.38310000  0.14120000  0.49030000  1
  H  H51  1  0.38310000  0.35880000  0.99030000  1
  H  H52  1  0.46360000  0.62950000  0.99510000  1
  H  H53  1  0.46360000  0.87050000  0.49510000  1
  H  H54  1  0.46840000  0.72210000  0.76300000  1
  H  H55  1  0.46840000  0.77790000  0.26300000  1
  H  H56  1  0.47040000  0.73420000  0.37460000  1
  H  H57  1  0.47040000  0.76580000  0.87460000  1
  H  H58  1  0.47940000  0.54490000  0.87900000  1
  H  H59  1  0.47940000  0.95510000  0.37900000  1
  H  H60  1  0.48660000  0.63410000  0.17990000  1
  H  H61  1  0.48660000  0.86590000  0.67990000  1
  H  H62  1  0.49210000  0.58960000  0.29250000  1
  H  H63  1  0.49210000  0.91040000  0.79250000  1
  H  H64  1  0.50790000  0.08960000  0.20750000  1
  H  H65  1  0.50790000  0.41040000  0.70750000  1
  H  H66  1  0.51340000  0.13410000  0.32010000  1
  H  H67  1  0.51340000  0.36590000  0.82010000  1
  H  H68  1  0.52060000  0.04490000  0.62100000  1
  H  H69  1  0.52060000  0.45510000  0.12100000  1
  H  H70  1  0.52960000  0.23420000  0.12540000  1
  H  H71  1  0.52960000  0.26580000  0.62540000  1
  H  H72  1  0.53160000  0.22210000  0.73700000  1
  H  H73  1  0.53160000  0.27790000  0.23700000  1
  H  H74  1  0.53640000  0.12950000  0.50490000  1
  H  H75  1  0.53640000  0.37050000  0.00490000  1
  H  H76  1  0.61690000  0.64120000  0.00970000  1
  H  H77  1  0.61690000  0.85880000  0.50970000  1
  H  H78  1  0.64040000  0.67370000  0.47740000  1
  H  H79  1  0.64040000  0.82630000  0.97740000  1
  H  H80  1  0.64490000  0.51460000  0.84130000  1
  H  H81  1  0.64490000  0.98540000  0.34130000  1
  H  H82  1  0.65300000  0.53070000  0.63350000  1
  H  H83  1  0.65300000  0.96930000  0.13350000  1
  H  H84  1  0.68100000  0.02780000  0.62960000  1
  H  H85  1  0.68100000  0.47220000  0.12960000  1
  H  H86  1  0.68960000  0.02570000  0.85210000  1
  H  H87  1  0.68960000  0.47430000  0.35210000  1
  H  H88  1  0.69320000  0.17290000  0.46820000  1
  H  H89  1  0.69320000  0.32710000  0.96820000  1
  H  H90  1  0.71750000  0.14860000  0.01500000  1
  H  H91  1  0.71750000  0.35140000  0.51500000  1
  H  H92  1  0.78250000  0.64860000  0.01500000  1
  H  H93  1  0.78250000  0.85140000  0.51500000  1
  H  H94  1  0.80680000  0.67290000  0.46820000  1
  H  H95  1  0.80680000  0.82710000  0.96820000  1
  H  H96  1  0.81040000  0.52570000  0.85210000  1
  H  H97  1  0.81040000  0.97430000  0.35210000  1
  H  H98  1  0.81900000  0.52780000  0.62960000  1
  H  H99  1  0.81900000  0.97220000  0.12960000  1
  H  H100  1  0.84700000  0.03070000  0.63350000  1
  H  H101  1  0.84700000  0.46930000  0.13350000  1
  H  H102  1  0.85510000  0.01460000  0.84130000  1
  H  H103  1  0.85510000  0.48540000  0.34130000  1
  H  H104  1  0.85960000  0.17370000  0.47740000  1
  H  H105  1  0.85960000  0.32630000  0.97740000  1
  H  H106  1  0.88310000  0.14120000  0.00970000  1
  H  H107  1  0.88310000  0.35880000  0.50970000  1
  H  H108  1  0.96360000  0.62950000  0.50490000  1
  H  H109  1  0.96360000  0.87050000  0.00490000  1
  H  H110  1  0.96840000  0.72210000  0.73700000  1
  H  H111  1  0.96840000  0.77790000  0.23700000  1
  H  H112  1  0.97040000  0.73420000  0.12540000  1
  H  H113  1  0.97040000  0.76580000  0.62540000  1
  H  H114  1  0.97940000  0.54490000  0.62100000  1
  H  H115  1  0.97940000  0.95510000  0.12100000  1
  H  H116  1  0.98660000  0.63410000  0.32010000  1
  H  H117  1  0.98660000  0.86590000  0.82010000  1
  H  H118  1  0.99210000  0.58960000  0.20750000  1
  H  H119  1  0.99210000  0.91040000  0.70750000  1
  C  C120  1  0.00340000  0.57190000  0.58374000  1
  C  C121  1  0.00340000  0.92810000  0.08374000  1
  C  C122  1  0.01240000  0.10610000  0.41624000  1
  C  C123  1  0.01240000  0.39390000  0.91624000  1
  C  C124  1  0.01620000  0.15090000  0.30320000  1
  C  C125  1  0.01620000  0.34910000  0.80320000  1
  C  C126  1  0.01920000  0.19550000  0.19108000  1
  C  C127  1  0.01920000  0.30450000  0.69108000  1
  C  C128  1  0.02070000  0.17300000  0.36395000  1
  C  C129  1  0.02070000  0.32700000  0.86395000  1
  C  C130  1  0.02330000  0.23590000  0.63906000  1
  C  C131  1  0.02330000  0.26410000  0.13906000  1
  C  C132  1  0.02340000  0.21660000  0.25211000  1
  C  C133  1  0.02340000  0.28340000  0.75211000  1
  C  C134  1  0.06140000  0.10320000  0.95793000  1
  C  C135  1  0.06140000  0.39680000  0.45793000  1
  C  C136  1  0.10930000  0.57680000  0.57571000  1
  C  C137  1  0.10930000  0.92320000  0.07571000  1
  C  C138  1  0.15460000  0.61700000  0.52343000  1
  C  C139  1  0.15460000  0.88300000  0.02343000  1
  C  C140  1  0.16760000  0.10070000  0.95170000  1
  C  C141  1  0.16760000  0.39930000  0.45170000  1
  C  C142  1  0.17120000  0.54250000  0.62248000  1
  C  C143  1  0.17120000  0.95750000  0.12248000  1
  C  C144  1  0.17700000  0.64290000  0.99174000  1
  C  C145  1  0.17700000  0.85710000  0.49174000  1
  C  C146  1  0.18440000  0.55970000  0.90050000  1
  C  C147  1  0.18440000  0.94030000  0.40050000  1
  C  C148  1  0.21620000  0.05780000  0.90230000  1
  C  C149  1  0.21620000  0.44220000  0.40230000  1
  C  C150  1  0.22320000  0.14360000  0.99738000  1
  C  C151  1  0.22320000  0.35640000  0.49738000  1
  C  C152  1  0.22940000  0.04940000  0.61565000  1
  C  C153  1  0.22940000  0.45060000  0.11565000  1
  C  C154  1  0.24600000  0.12100000  0.52067000  1
  C  C155  1  0.24600000  0.37900000  0.02067000  1
  C  C156  1  0.25400000  0.62100000  0.52067000  1
  C  C157  1  0.25400000  0.87900000  0.02067000  1
  C  C158  1  0.27060000  0.54940000  0.61565000  1
  C  C159  1  0.27060000  0.95060000  0.11565000  1
  C  C160  1  0.27680000  0.64360000  0.99738000  1
  C  C161  1  0.27680000  0.85640000  0.49738000  1
  C  C162  1  0.28380000  0.55780000  0.90230000  1
  C  C163  1  0.28380000  0.94220000  0.40230000  1
  C  C164  1  0.31560000  0.05970000  0.90050000  1
  C  C165  1  0.31560000  0.44030000  0.40050000  1
  C  C166  1  0.32300000  0.14290000  0.99174000  1
  C  C167  1  0.32300000  0.35710000  0.49174000  1
  C  C168  1  0.32880000  0.04250000  0.62248000  1
  C  C169  1  0.32880000  0.45750000  0.12248000  1
  C  C170  1  0.33240000  0.60070000  0.95170000  1
  C  C171  1  0.33240000  0.89930000  0.45170000  1
  C  C172  1  0.34540000  0.11700000  0.52343000  1
  C  C173  1  0.34540000  0.38300000  0.02343000  1
  C  C174  1  0.39070000  0.07680000  0.57571000  1
  C  C175  1  0.39070000  0.42320000  0.07571000  1
  C  C176  1  0.43860000  0.60320000  0.95793000  1
  C  C177  1  0.43860000  0.89680000  0.45793000  1
  C  C178  1  0.47660000  0.71660000  0.25211000  1
  C  C179  1  0.47660000  0.78340000  0.75211000  1
  C  C180  1  0.47670000  0.73590000  0.63906000  1
  C  C181  1  0.47670000  0.76410000  0.13906000  1
  C  C182  1  0.47930000  0.67300000  0.36395000  1
  C  C183  1  0.47930000  0.82700000  0.86395000  1
  C  C184  1  0.48080000  0.69550000  0.19108000  1
  C  C185  1  0.48080000  0.80450000  0.69108000  1
  C  C186  1  0.48380000  0.65090000  0.30320000  1
  C  C187  1  0.48380000  0.84910000  0.80320000  1
  C  C188  1  0.48760000  0.60610000  0.41624000  1
  C  C189  1  0.48760000  0.89390000  0.91624000  1
  C  C190  1  0.49660000  0.07190000  0.58374000  1
  C  C191  1  0.49660000  0.42810000  0.08374000  1
  C  C192  1  0.50340000  0.57190000  0.91626000  1
  C  C193  1  0.50340000  0.92810000  0.41626000  1
  C  C194  1  0.51240000  0.10610000  0.08376000  1
  C  C195  1  0.51240000  0.39390000  0.58376000  1
  C  C196  1  0.51620000  0.15090000  0.19680000  1
  C  C197  1  0.51620000  0.34910000  0.69680000  1
  C  C198  1  0.51920000  0.19550000  0.30892000  1
  C  C199  1  0.51920000  0.30450000  0.80892000  1
  C  C200  1  0.52070000  0.17300000  0.13605000  1
  C  C201  1  0.52070000  0.32700000  0.63605000  1
  C  C202  1  0.52330000  0.23590000  0.86094000  1
  C  C203  1  0.52330000  0.26410000  0.36094000  1
  C  C204  1  0.52340000  0.21660000  0.24789000  1
  C  C205  1  0.52340000  0.28340000  0.74789000  1
  C  C206  1  0.56140000  0.10320000  0.54207000  1
  C  C207  1  0.56140000  0.39680000  0.04207000  1
  C  C208  1  0.60930000  0.57680000  0.92429000  1
  C  C209  1  0.60930000  0.92320000  0.42429000  1
  C  C210  1  0.65460000  0.61700000  0.97657000  1
  C  C211  1  0.65460000  0.88300000  0.47657000  1
  C  C212  1  0.66760000  0.10070000  0.54830000  1
  C  C213  1  0.66760000  0.39930000  0.04830000  1
  C  C214  1  0.67120000  0.54250000  0.87752000  1
  C  C215  1  0.67120000  0.95750000  0.37752000  1
  C  C216  1  0.67700000  0.64290000  0.50826000  1
  C  C217  1  0.67700000  0.85710000  0.00826000  1
  C  C218  1  0.68440000  0.55970000  0.59950000  1
  C  C219  1  0.68440000  0.94030000  0.09950000  1
  C  C220  1  0.71620000  0.05780000  0.59770000  1
  C  C221  1  0.71620000  0.44220000  0.09770000  1
  C  C222  1  0.72320000  0.14360000  0.50262000  1
  C  C223  1  0.72320000  0.35640000  0.00262000  1
  C  C224  1  0.72940000  0.04940000  0.88435000  1
  C  C225  1  0.72940000  0.45060000  0.38435000  1
  C  C226  1  0.74600000  0.12100000  0.97933000  1
  C  C227  1  0.74600000  0.37900000  0.47933000  1
  C  C228  1  0.75400000  0.62100000  0.97933000  1
  C  C229  1  0.75400000  0.87900000  0.47933000  1
  C  C230  1  0.77060000  0.54940000  0.88435000  1
  C  C231  1  0.77060000  0.95060000  0.38435000  1
  C  C232  1  0.77680000  0.64360000  0.50262000  1
  C  C233  1  0.77680000  0.85640000  0.00262000  1
  C  C234  1  0.78380000  0.55780000  0.59770000  1
  C  C235  1  0.78380000  0.94220000  0.09770000  1
  C  C236  1  0.81560000  0.05970000  0.59950000  1
  C  C237  1  0.81560000  0.44030000  0.09950000  1
  C  C238  1  0.82300000  0.14290000  0.50826000  1
  C  C239  1  0.82300000  0.35710000  0.00826000  1
  C  C240  1  0.82880000  0.04250000  0.87752000  1
  C  C241  1  0.82880000  0.45750000  0.37752000  1
  C  C242  1  0.83240000  0.60070000  0.54830000  1
  C  C243  1  0.83240000  0.89930000  0.04830000  1
  C  C244  1  0.84540000  0.11700000  0.97657000  1
  C  C245  1  0.84540000  0.38300000  0.47657000  1
  C  C246  1  0.89070000  0.07680000  0.92429000  1
  C  C247  1  0.89070000  0.42320000  0.42429000  1
  C  C248  1  0.93860000  0.60320000  0.54207000  1
  C  C249  1  0.93860000  0.89680000  0.04207000  1
  C  C250  1  0.97660000  0.71660000  0.24789000  1
  C  C251  1  0.97660000  0.78340000  0.74789000  1
  C  C252  1  0.97670000  0.73590000  0.86094000  1
  C  C253  1  0.97670000  0.76410000  0.36094000  1
  C  C254  1  0.97930000  0.67300000  0.13605000  1
  C  C255  1  0.97930000  0.82700000  0.63605000  1
  C  C256  1  0.98080000  0.69550000  0.30892000  1
  C  C257  1  0.98080000  0.80450000  0.80892000  1
  C  C258  1  0.98380000  0.65090000  0.19680000  1
  C  C259  1  0.98380000  0.84910000  0.69680000  1
  C  C260  1  0.98760000  0.60610000  0.08376000  1
  C  C261  1  0.98760000  0.89390000  0.58376000  1
  C  C262  1  0.99660000  0.07190000  0.91626000  1
  C  C263  1  0.99660000  0.42810000  0.41626000  1
  N  N264  1  0.12856000  0.60094000  0.94491000  1
  N  N265  1  0.12856000  0.89906000  0.44491000  1
  N  N266  1  0.18652000  0.08791000  0.56563000  1
  N  N267  1  0.18652000  0.41209000  0.06563000  1
  N  N268  1  0.31348000  0.58791000  0.56563000  1
  N  N269  1  0.31348000  0.91209000  0.06563000  1
  N  N270  1  0.37144000  0.10094000  0.94491000  1
  N  N271  1  0.37144000  0.39906000  0.44491000  1
  N  N272  1  0.62856000  0.60094000  0.55509000  1
  N  N273  1  0.62856000  0.89906000  0.05509000  1
  N  N274  1  0.68652000  0.08791000  0.93437000  1
  N  N275  1  0.68652000  0.41209000  0.43437000  1
  N  N276  1  0.81348000  0.58791000  0.93437000  1
  N  N277  1  0.81348000  0.91209000  0.43437000  1
  N  N278  1  0.87144000  0.10094000  0.55509000  1
  N  N279  1  0.87144000  0.39906000  0.05509000  1
  O  O280  1  0.02327000  0.53049000  0.09623000  1
  O  O281  1  0.02327000  0.96951000  0.59623000  1
  O  O282  1  0.02510000  0.23814000  0.08308000  1
  O  O283  1  0.02510000  0.26186000  0.58308000  1
  O  O284  1  0.02531000  0.15267000  0.65305000  1
  O  O285  1  0.02531000  0.34733000  0.15305000  1
  O  O286  1  0.04249000  0.13257000  0.46966000  1
  O  O287  1  0.04249000  0.36743000  0.96966000  1
  O  O288  1  0.45751000  0.63257000  0.46966000  1
  O  O289  1  0.45751000  0.86743000  0.96966000  1
  O  O290  1  0.47469000  0.65267000  0.65305000  1
  O  O291  1  0.47469000  0.84733000  0.15305000  1
  O  O292  1  0.47490000  0.73814000  0.08308000  1
  O  O293  1  0.47490000  0.76186000  0.58308000  1
  O  O294  1  0.47673000  0.03049000  0.09623000  1
  O  O295  1  0.47673000  0.46951000  0.59623000  1
  O  O296  1  0.52327000  0.53049000  0.40377000  1
  O  O297  1  0.52327000  0.96951000  0.90377000  1
  O  O298  1  0.52510000  0.23814000  0.41692000  1
  O  O299  1  0.52510000  0.26186000  0.91692000  1
  O  O300  1  0.52531000  0.15267000  0.84695000  1
  O  O301  1  0.52531000  0.34733000  0.34695000  1
  O  O302  1  0.54249000  0.13257000  0.03034000  1
  O  O303  1  0.54249000  0.36743000  0.53034000  1
  O  O304  1  0.95751000  0.63257000  0.03034000  1
  O  O305  1  0.95751000  0.86743000  0.53034000  1
  O  O306  1  0.97469000  0.65267000  0.84695000  1
  O  O307  1  0.97469000  0.84733000  0.34695000  1
  O  O308  1  0.97490000  0.73814000  0.41692000  1
  O  O309  1  0.97490000  0.76186000  0.91692000  1
  O  O310  1  0.97673000  0.03049000  0.40377000  1
  O  O311  1  0.97673000  0.46951000  0.90377000  1
