# generated using pymatgen
data_AgH15C30(NO)3
_symmetry_space_group_name_H-M   'P 1'
_cell_length_a   10.33500000
_cell_length_b   10.33500000
_cell_length_c   17.01500000
_cell_angle_alpha   95.15880000
_cell_angle_beta   105.30940000
_cell_angle_gamma   114.66300000
_symmetry_Int_Tables_number   1
_chemical_formula_structural   AgH15C30(NO)3
_chemical_formula_sum   'Ag2 H30 C60 N6 O6'
_cell_volume   1550.95108666
_cell_formula_units_Z   2
loop_
 _symmetry_equiv_pos_site_id
 _symmetry_equiv_pos_as_xyz
  1  'x, y, z'
loop_
 _atom_site_type_symbol
 _atom_site_label
 _atom_site_symmetry_multiplicity
 _atom_site_fract_x
 _atom_site_fract_y
 _atom_site_fract_z
 _atom_site_occupancy
  Ag  Ag0  1  0.18277000  0.16194000  0.80825000  1
  Ag  Ag1  1  0.14631000  0.62548000  0.30825000  1
  H  H2  1  0.99440000  0.34800000  0.95740000  1
  H  H3  1  0.94260000  0.14260000  0.55320000  1
  H  H4  1  0.91060000  0.61060000  0.05320000  1
  H  H5  1  0.88260000  0.58350000  0.71590000  1
  H  H6  1  0.87540000  0.52350000  0.57950000  1
  H  H7  1  0.85450000  0.99810000  0.06020000  1
  H  H8  1  0.83770000  0.06570000  0.25560000  1
  H  H9  1  0.80900000  0.39650000  0.42050000  1
  H  H10  1  0.74700000  0.31090000  0.90390000  1
  H  H11  1  0.70910000  0.94030000  0.48440000  1
  H  H12  1  0.68990000  0.41790000  0.75560000  1
  H  H13  1  0.65540000  0.77440000  0.84860000  1
  H  H14  1  0.63240000  0.83330000  0.21590000  1
  H  H15  1  0.60890000  0.75140000  0.60590000  1
  H  H16  1  0.60760000  0.96280000  0.00800000  1
  H  H17  1  0.57420000  0.19320000  0.34860000  1
  H  H18  1  0.56210000  0.20570000  0.56020000  1
  H  H19  1  0.56140000  0.23000000  0.14400000  1
  H  H20  1  0.55600000  0.70410000  0.07950000  1
  H  H21  1  0.54520000  0.40040000  0.50800000  1
  H  H22  1  0.52400000  0.61150000  0.92050000  1
  H  H23  1  0.41400000  0.58260000  0.64400000  1
  H  H24  1  0.37150000  0.26410000  0.03200000  1
  H  H25  1  0.35450000  0.99700000  0.10590000  1
  H  H26  1  0.26790000  0.66050000  0.53200000  1
  H  H27  1  0.14930000  0.46740000  0.10390000  1
  H  H28  1  0.13650000  0.95460000  0.60390000  1
  H  H29  1  0.10940000  0.96300000  0.45740000  1
  H  H30  1  0.09300000  0.15690000  0.40390000  1
  H  H31  1  0.04410000  0.77530000  0.98440000  1
  C  C32  1  0.99076000  0.74517000  0.59953000  1
  C  C33  1  0.96414000  0.60013000  0.57767000  1
  C  C34  1  0.94914000  0.17856000  0.01510000  1
  C  C35  1  0.94460000  0.89800000  0.86980000  1
  C  C36  1  0.93980000  0.74230000  0.97170000  1
  C  C37  1  0.91630000  0.27060000  0.96770000  1
  C  C38  1  0.89553000  0.28899000  0.49452000  1
  C  C39  1  0.88391000  0.78769000  0.62660000  1
  C  C40  1  0.86720000  0.15250000  0.51270000  1
  C  C41  1  0.86145000  0.79030000  0.91055000  1
  C  C42  1  0.86020000  0.64550000  0.01270000  1
  C  C43  1  0.84790000  0.30980000  0.21970000  1
  C  C44  1  0.83271000  0.06179000  0.02930000  1
  C  C45  1  0.78800000  0.30480000  0.43320000  1
  C  C46  1  0.78765000  0.58204000  0.70069000  1
  C  C47  1  0.76910000  0.24850000  0.93580000  1
  C  C48  1  0.76321000  0.67966000  0.65447000  1
  C  C49  1  0.74090000  0.05070000  0.22420000  1
  C  C50  1  0.72940000  0.03190000  0.47170000  1
  C  C51  1  0.71720000  0.16700000  0.20020000  1
  C  C52  1  0.70650000  0.74220000  0.89030000  1
  C  C53  1  0.70553000  0.59899000  0.99452000  1
  C  C54  1  0.68590000  0.04030000  0.99780000  1
  C  C55  1  0.67350000  0.48330000  0.72420000  1
  C  C56  1  0.65410000  0.13370000  0.95100000  1
  C  C57  1  0.64810000  0.18380000  0.39030000  1
  C  C58  1  0.62840000  0.64520000  0.93320000  1
  C  C59  1  0.62410000  0.68250000  0.63460000  1
  C  C60  1  0.62263000  0.48809000  0.03792000  1
  C  C61  1  0.62025000  0.04910000  0.41055000  1
  C  C62  1  0.61865000  0.91304000  0.20069000  1
  C  C63  1  0.57500000  0.14930000  0.15750000  1
  C  C64  1  0.53320000  0.48300000  0.70020000  1
  C  C65  1  0.50820000  0.58250000  0.65750000  1
  C  C66  1  0.50190000  0.11730000  0.92020000  1
  C  C67  1  0.48472000  0.48568000  0.05340000  1
  C  C68  1  0.47754000  0.61353000  0.07767000  1
  C  C69  1  0.47481000  0.89126000  0.15447000  1
  C  C70  1  0.47180000  0.92520000  0.36980000  1
  C  C71  1  0.46751000  0.19659000  0.52930000  1
  C  C72  1  0.45750000  0.31190000  0.49780000  1
  C  C73  1  0.45210000  0.01050000  0.13460000  1
  C  C74  1  0.40990000  0.37180000  0.71970000  1
  C  C75  1  0.36551000  0.35079000  0.04690000  1
  C  C76  1  0.35436000  0.60877000  0.09953000  1
  C  C77  1  0.35157000  0.93982000  0.54719000  1
  C  C78  1  0.33891000  0.74269000  0.12660000  1
  C  C79  1  0.33654000  0.06596000  0.51510000  1
  C  C80  1  0.31730000  0.29690000  0.45100000  1
  C  C81  1  0.30290000  0.41830000  0.42020000  1
  C  C82  1  0.23793000  0.34433000  0.06246000  1
  C  C83  1  0.23376000  0.47232000  0.09068000  1
  C  C84  1  0.21813000  0.82453000  0.56246000  1
  C  C85  1  0.19710000  0.05140000  0.46770000  1
  C  C86  1  0.19611000  0.68139000  0.54690000  1
  C  C87  1  0.18730000  0.16670000  0.43580000  1
  C  C88  1  0.11836000  0.85692000  0.59068000  1
  C  C89  1  0.10737000  0.19562000  0.04719000  1
  C  C90  1  0.06772000  0.56868000  0.55340000  1
  C  C91  1  0.04983000  0.41529000  0.53792000  1
  N  N92  1  0.95180000  0.41830000  0.23450000  1
  N  N93  1  0.38550000  0.11140000  0.89630000  1
  N  N94  1  0.35543000  0.82990000  0.33993000  1
  N  N95  1  0.31620000  0.28270000  0.73450000  1
  N  N96  1  0.28490000  0.51080000  0.39630000  1
  N  N97  1  0.01003000  0.98450000  0.83993000  1
  O  O98  1  0.89257000  0.90814000  0.62511000  1
  O  O99  1  0.66488000  0.39872000  0.05940000  1
  O  O100  1  0.46646000  0.92742000  0.55656000  1
  O  O101  1  0.21697000  0.73254000  0.12511000  1
  O  O102  1  0.16068000  0.39452000  0.55940000  1
  O  O103  1  0.12914000  0.09010000  0.05656000  1
