# generated using pymatgen
data_CdH14C19N2O5
_symmetry_space_group_name_H-M   'P 1'
_cell_length_a   11.73680000
_cell_length_b   11.73680000
_cell_length_c   15.46200000
_cell_angle_alpha   82.00110000
_cell_angle_beta   82.00110000
_cell_angle_gamma   76.69060000
_symmetry_Int_Tables_number   1
_chemical_formula_structural   CdH14C19N2O5
_chemical_formula_sum   'Cd4 H56 C76 N8 O20'
_cell_volume   2039.83511521
_cell_formula_units_Z   4
loop_
 _symmetry_equiv_pos_site_id
 _symmetry_equiv_pos_as_xyz
  1  'x, y, z'
loop_
 _atom_site_type_symbol
 _atom_site_label
 _atom_site_symmetry_multiplicity
 _atom_site_fract_x
 _atom_site_fract_y
 _atom_site_fract_z
 _atom_site_occupancy
  Cd  Cd0  1  0.46423000  0.97196000  0.12845000  1
  Cd  Cd1  1  0.02804000  0.53577000  0.37155000  1
  Cd  Cd2  1  0.97196000  0.46423000  0.62845000  1
  Cd  Cd3  1  0.53577000  0.02804000  0.87155000  1
  H  H4  1  0.84640000  0.99160000  0.36900000  1
  H  H5  1  0.80950000  0.91830000  0.60910000  1
  H  H6  1  0.18950000  0.90970000  0.37550000  1
  H  H7  1  0.40470000  0.88490000  0.45360000  1
  H  H8  1  0.36480000  0.86660000  0.83390000  1
  H  H9  1  0.17220000  0.85640000  0.83940000  1
  H  H10  1  0.79620000  0.84960000  0.87510000  1
  H  H11  1  0.99160000  0.84640000  0.86900000  1
  H  H12  1  0.14360000  0.82780000  0.66060000  1
  H  H13  1  0.28320000  0.81780000  0.11610000  1
  H  H14  1  0.09030000  0.81050000  0.12450000  1
  H  H15  1  0.72280000  0.81020000  0.11590000  1
  H  H16  1  0.91830000  0.80950000  0.10910000  1
  H  H17  1  0.84960000  0.79620000  0.37510000  1
  H  H18  1  0.36260000  0.76740000  0.58120000  1
  H  H19  1  0.81020000  0.72280000  0.61590000  1
  H  H20  1  0.18220000  0.71680000  0.38390000  1
  H  H21  1  0.65400000  0.68480000  0.50440000  1
  H  H22  1  0.42270000  0.65710000  0.92340000  1
  H  H23  1  0.68480000  0.65400000  0.00440000  1
  H  H24  1  0.23260000  0.63740000  0.91880000  1
  H  H25  1  0.13340000  0.63520000  0.66610000  1
  H  H26  1  0.60410000  0.61690000  0.94550000  1
  H  H27  1  0.42290000  0.61550000  0.31540000  1
  H  H28  1  0.61690000  0.60410000  0.44550000  1
  H  H29  1  0.11510000  0.59530000  0.04640000  1
  H  H30  1  0.34290000  0.57730000  0.57660000  1
  H  H31  1  0.38450000  0.57710000  0.18460000  1
  H  H32  1  0.61550000  0.42290000  0.81540000  1
  H  H33  1  0.65710000  0.42270000  0.42340000  1
  H  H34  1  0.88490000  0.40470000  0.95360000  1
  H  H35  1  0.38310000  0.39590000  0.55450000  1
  H  H36  1  0.57710000  0.38450000  0.68460000  1
  H  H37  1  0.39590000  0.38310000  0.05450000  1
  H  H38  1  0.86660000  0.36480000  0.33390000  1
  H  H39  1  0.76740000  0.36260000  0.08120000  1
  H  H40  1  0.31520000  0.34600000  0.99560000  1
  H  H41  1  0.57730000  0.34290000  0.07660000  1
  H  H42  1  0.34600000  0.31520000  0.49560000  1
  H  H43  1  0.81780000  0.28320000  0.61610000  1
  H  H44  1  0.18980000  0.27720000  0.38410000  1
  H  H45  1  0.63740000  0.23260000  0.41880000  1
  H  H46  1  0.15040000  0.20380000  0.62490000  1
  H  H47  1  0.08170000  0.19050000  0.89090000  1
  H  H48  1  0.27720000  0.18980000  0.88410000  1
  H  H49  1  0.90970000  0.18950000  0.87550000  1
  H  H50  1  0.71680000  0.18220000  0.88390000  1
  H  H51  1  0.85640000  0.17220000  0.33940000  1
  H  H52  1  0.00840000  0.15360000  0.13100000  1
  H  H53  1  0.20380000  0.15040000  0.12490000  1
  H  H54  1  0.82780000  0.14360000  0.16060000  1
  H  H55  1  0.63520000  0.13340000  0.16610000  1
  H  H56  1  0.59530000  0.11510000  0.54640000  1
  H  H57  1  0.81050000  0.09030000  0.62450000  1
  H  H58  1  0.19050000  0.08170000  0.39090000  1
  H  H59  1  0.15360000  0.00840000  0.63100000  1
  C  C60  1  0.02481000  0.98115000  0.12717000  1
  C  C61  1  0.89850000  0.97778000  0.13186000  1
  C  C62  1  0.01885000  0.97519000  0.37283000  1
  C  C63  1  0.91752000  0.93732000  0.37220000  1
  C  C64  1  0.30677000  0.93237000  0.84700000  1
  C  C65  1  0.19079000  0.92579000  0.84980000  1
  C  C66  1  0.81869000  0.92029000  0.87620000  1
  C  C67  1  0.93732000  0.91752000  0.87220000  1
  C  C68  1  0.97778000  0.89850000  0.63186000  1
  C  C69  1  0.11724000  0.88964000  0.37630000  1
  C  C70  1  0.22712000  0.88792000  0.11910000  1
  C  C71  1  0.11036000  0.88276000  0.12370000  1
  C  C72  1  0.74437000  0.87917000  0.12370000  1
  C  C73  1  0.86265000  0.87785000  0.11980000  1
  C  C74  1  0.87785000  0.86265000  0.61980000  1
  C  C75  1  0.44166000  0.83720000  0.28658000  1
  C  C76  1  0.92029000  0.81869000  0.37620000  1
  C  C77  1  0.07421000  0.80921000  0.65020000  1
  C  C78  1  0.39914000  0.80760000  0.45131000  1
  C  C79  1  0.56730000  0.79434000  0.95206000  1
  C  C80  1  0.11208000  0.77288000  0.38090000  1
  C  C81  1  0.41725000  0.76161000  0.37127000  1
  C  C82  1  0.87917000  0.74437000  0.62370000  1
  C  C83  1  0.37288000  0.73748000  0.52734000  1
  C  C84  1  0.06763000  0.69323000  0.65300000  1
  C  C85  1  0.60455000  0.66739000  0.99004000  1
  C  C86  1  0.40834000  0.64696000  0.36886000  1
  C  C87  1  0.37672000  0.63848000  0.97515000  1
  C  C88  1  0.26252000  0.62712000  0.97266000  1
  C  C89  1  0.36152000  0.62328000  0.52485000  1
  C  C90  1  0.42231000  0.62217000  0.05465000  1
  C  C91  1  0.66739000  0.60455000  0.49004000  1
  C  C92  1  0.19240000  0.60086000  0.04869000  1
  C  C93  1  0.35304000  0.59166000  0.13114000  1
  C  C94  1  0.23839000  0.58275000  0.12873000  1
  C  C95  1  0.37783000  0.57769000  0.44535000  1
  C  C96  1  0.79434000  0.56730000  0.45206000  1
  C  C97  1  0.16280000  0.55834000  0.21342000  1
  C  C98  1  0.83720000  0.44166000  0.78658000  1
  C  C99  1  0.20566000  0.43270000  0.54794000  1
  C  C100  1  0.62217000  0.42231000  0.55465000  1
  C  C101  1  0.76161000  0.41725000  0.87127000  1
  C  C102  1  0.64696000  0.40834000  0.86886000  1
  C  C103  1  0.80760000  0.39914000  0.95131000  1
  C  C104  1  0.33261000  0.39545000  0.50996000  1
  C  C105  1  0.57769000  0.37783000  0.94535000  1
  C  C106  1  0.63848000  0.37672000  0.47515000  1
  C  C107  1  0.73748000  0.37288000  0.02734000  1
  C  C108  1  0.62328000  0.36152000  0.02485000  1
  C  C109  1  0.59166000  0.35304000  0.63114000  1
  C  C110  1  0.39545000  0.33261000  0.00996000  1
  C  C111  1  0.93237000  0.30677000  0.34700000  1
  C  C112  1  0.62712000  0.26252000  0.47266000  1
  C  C113  1  0.12083000  0.25563000  0.37630000  1
  C  C114  1  0.58275000  0.23839000  0.62873000  1
  C  C115  1  0.88792000  0.22712000  0.61910000  1
  C  C116  1  0.43270000  0.20566000  0.04794000  1
  C  C117  1  0.60086000  0.19240000  0.54869000  1
  C  C118  1  0.92579000  0.19079000  0.34980000  1
  C  C119  1  0.07971000  0.18131000  0.62380000  1
  C  C120  1  0.55834000  0.16280000  0.71342000  1
  C  C121  1  0.12215000  0.13735000  0.38020000  1
  C  C122  1  0.13735000  0.12215000  0.88020000  1
  C  C123  1  0.25563000  0.12083000  0.87630000  1
  C  C124  1  0.88964000  0.11724000  0.87630000  1
  C  C125  1  0.77288000  0.11208000  0.88090000  1
  C  C126  1  0.88276000  0.11036000  0.62370000  1
  C  C127  1  0.02222000  0.10150000  0.36814000  1
  C  C128  1  0.06268000  0.08248000  0.12780000  1
  C  C129  1  0.18131000  0.07971000  0.12380000  1
  C  C130  1  0.80921000  0.07421000  0.15020000  1
  C  C131  1  0.69323000  0.06763000  0.15300000  1
  C  C132  1  0.08248000  0.06268000  0.62780000  1
  C  C133  1  0.98115000  0.02481000  0.62717000  1
  C  C134  1  0.10150000  0.02222000  0.86814000  1
  C  C135  1  0.97519000  0.01885000  0.87283000  1
  N  N136  1  0.26450000  0.98434000  0.11859000  1
  N  N137  1  0.66003000  0.97241000  0.13785000  1
  N  N138  1  0.01566000  0.73550000  0.38141000  1
  N  N139  1  0.97241000  0.66003000  0.63785000  1
  N  N140  1  0.02759000  0.33997000  0.36215000  1
  N  N141  1  0.98434000  0.26450000  0.61859000  1
  N  N142  1  0.33997000  0.02759000  0.86215000  1
  N  N143  1  0.73550000  0.01566000  0.88141000  1
  O  O144  1  0.41333000  0.94733000  0.28508000  1
  O  O145  1  0.52101000  0.87303000  0.00082000  1
  O  O146  1  0.58986000  0.81788000  0.87061000  1
  O  O147  1  0.48464000  0.78844000  0.21839000  1
  O  O148  1  0.53201000  0.63423000  0.06643000  1
  O  O149  1  0.81788000  0.58986000  0.37061000  1
  O  O150  1  0.05267000  0.58667000  0.21492000  1
  O  O151  1  0.63423000  0.53201000  0.56643000  1
  O  O152  1  0.87303000  0.52101000  0.50082000  1
  O  O153  1  0.21156000  0.51536000  0.28161000  1
  O  O154  1  0.78844000  0.48464000  0.71839000  1
  O  O155  1  0.12697000  0.47899000  0.49918000  1
  O  O156  1  0.36577000  0.46799000  0.43357000  1
  O  O157  1  0.94733000  0.41333000  0.78508000  1
  O  O158  1  0.18212000  0.41014000  0.62939000  1
  O  O159  1  0.46799000  0.36577000  0.93357000  1
  O  O160  1  0.51536000  0.21156000  0.78161000  1
  O  O161  1  0.41014000  0.18212000  0.12939000  1
  O  O162  1  0.47899000  0.12697000  0.99918000  1
  O  O163  1  0.58667000  0.05267000  0.71492000  1
