# generated using pymatgen
data_ZnH3C4O5
_symmetry_space_group_name_H-M   'P 1'
_cell_length_a   8.40900000
_cell_length_b   13.04200000
_cell_length_c   13.90800000
_cell_angle_alpha   90.00000000
_cell_angle_beta   90.00000000
_cell_angle_gamma   90.00000000
_symmetry_Int_Tables_number   1
_chemical_formula_structural   ZnH3C4O5
_chemical_formula_sum   'Zn8 H24 C32 O40'
_cell_volume   1525.29283562
_cell_formula_units_Z   8
loop_
 _symmetry_equiv_pos_site_id
 _symmetry_equiv_pos_as_xyz
  1  'x, y, z'
loop_
 _atom_site_type_symbol
 _atom_site_label
 _atom_site_symmetry_multiplicity
 _atom_site_fract_x
 _atom_site_fract_y
 _atom_site_fract_z
 _atom_site_occupancy
  Zn  Zn0  1  0.00000000  0.20578000  0.25000000  1
  Zn  Zn1  1  0.00000000  0.70578000  0.25000000  1
  Zn  Zn2  1  0.50000000  0.43079000  0.25000000  1
  Zn  Zn3  1  0.50000000  0.93079000  0.25000000  1
  Zn  Zn4  1  0.00000000  0.29422000  0.75000000  1
  Zn  Zn5  1  0.00000000  0.79422000  0.75000000  1
  Zn  Zn6  1  0.50000000  0.06921000  0.75000000  1
  Zn  Zn7  1  0.50000000  0.56921000  0.75000000  1
  H  H8  1  0.16880000  0.00670000  0.01050000  1
  H  H9  1  0.83120000  0.50670000  0.01050000  1
  H  H10  1  0.06880000  0.83820000  0.04010000  1
  H  H11  1  0.93120000  0.33820000  0.04010000  1
  H  H12  1  0.04410000  0.38290000  0.11930000  1
  H  H13  1  0.95590000  0.88290000  0.11930000  1
  H  H14  1  0.04410000  0.88290000  0.38070000  1
  H  H15  1  0.95590000  0.38290000  0.38070000  1
  H  H16  1  0.06880000  0.33820000  0.45990000  1
  H  H17  1  0.93120000  0.83820000  0.45990000  1
  H  H18  1  0.16880000  0.50670000  0.48950000  1
  H  H19  1  0.83120000  0.00670000  0.48950000  1
  H  H20  1  0.16880000  0.99330000  0.51050000  1
  H  H21  1  0.83120000  0.49330000  0.51050000  1
  H  H22  1  0.06880000  0.16180000  0.54010000  1
  H  H23  1  0.93120000  0.66180000  0.54010000  1
  H  H24  1  0.04410000  0.61710000  0.61930000  1
  H  H25  1  0.95590000  0.11710000  0.61930000  1
  H  H26  1  0.04410000  0.11710000  0.88070000  1
  H  H27  1  0.95590000  0.61710000  0.88070000  1
  H  H28  1  0.06880000  0.66180000  0.95990000  1
  H  H29  1  0.93120000  0.16180000  0.95990000  1
  H  H30  1  0.16880000  0.49330000  0.98950000  1
  H  H31  1  0.83120000  0.99330000  0.98950000  1
  C  C32  1  0.06360000  0.99620000  0.03910000  1
  C  C33  1  0.93640000  0.49620000  0.03910000  1
  C  C34  1  0.05860000  0.89130000  0.08850000  1
  C  C35  1  0.94140000  0.39130000  0.08850000  1
  C  C36  1  0.03150000  0.08060000  0.11290000  1
  C  C37  1  0.96850000  0.58060000  0.11290000  1
  C  C38  1  0.18770000  0.87700000  0.16290000  1
  C  C39  1  0.81230000  0.37700000  0.16290000  1
  C  C40  1  0.18770000  0.37700000  0.33710000  1
  C  C41  1  0.81230000  0.87700000  0.33710000  1
  C  C42  1  0.03150000  0.58060000  0.38710000  1
  C  C43  1  0.96850000  0.08060000  0.38710000  1
  C  C44  1  0.05860000  0.39130000  0.41150000  1
  C  C45  1  0.94140000  0.89130000  0.41150000  1
  C  C46  1  0.06360000  0.49620000  0.46090000  1
  C  C47  1  0.93640000  0.99620000  0.46090000  1
  C  C48  1  0.06360000  0.00380000  0.53910000  1
  C  C49  1  0.93640000  0.50380000  0.53910000  1
  C  C50  1  0.05860000  0.10870000  0.58850000  1
  C  C51  1  0.94140000  0.60870000  0.58850000  1
  C  C52  1  0.03150000  0.91940000  0.61290000  1
  C  C53  1  0.96850000  0.41940000  0.61290000  1
  C  C54  1  0.18770000  0.12300000  0.66290000  1
  C  C55  1  0.81230000  0.62300000  0.66290000  1
  C  C56  1  0.18770000  0.62300000  0.83710000  1
  C  C57  1  0.81230000  0.12300000  0.83710000  1
  C  C58  1  0.03150000  0.41940000  0.88710000  1
  C  C59  1  0.96850000  0.91940000  0.88710000  1
  C  C60  1  0.05860000  0.60870000  0.91150000  1
  C  C61  1  0.94140000  0.10870000  0.91150000  1
  C  C62  1  0.06360000  0.50380000  0.96090000  1
  C  C63  1  0.93640000  0.00380000  0.96090000  1
  O  O64  1  0.12410000  0.15260000  0.12420000  1
  O  O65  1  0.87590000  0.65260000  0.12420000  1
  O  O66  1  0.09420000  0.57730000  0.16190000  1
  O  O67  1  0.90580000  0.07730000  0.16190000  1
  O  O68  1  0.30150000  0.93670000  0.16320000  1
  O  O69  1  0.69850000  0.43670000  0.16320000  1
  O  O70  1  0.46170000  0.28240000  0.21210000  1
  O  O71  1  0.53830000  0.78240000  0.21210000  1
  O  O72  1  0.17370000  0.80320000  0.22040000  1
  O  O73  1  0.82630000  0.30320000  0.22040000  1
  O  O74  1  0.17370000  0.30320000  0.27960000  1
  O  O75  1  0.82630000  0.80320000  0.27960000  1
  O  O76  1  0.46170000  0.78240000  0.28790000  1
  O  O77  1  0.53830000  0.28240000  0.28790000  1
  O  O78  1  0.30150000  0.43670000  0.33680000  1
  O  O79  1  0.69850000  0.93670000  0.33680000  1
  O  O80  1  0.09420000  0.07730000  0.33810000  1
  O  O81  1  0.90580000  0.57730000  0.33810000  1
  O  O82  1  0.12410000  0.65260000  0.37580000  1
  O  O83  1  0.87590000  0.15260000  0.37580000  1
  O  O84  1  0.12410000  0.84740000  0.62420000  1
  O  O85  1  0.87590000  0.34740000  0.62420000  1
  O  O86  1  0.09420000  0.42270000  0.66190000  1
  O  O87  1  0.90580000  0.92270000  0.66190000  1
  O  O88  1  0.30150000  0.06330000  0.66320000  1
  O  O89  1  0.69850000  0.56330000  0.66320000  1
  O  O90  1  0.46170000  0.71760000  0.71210000  1
  O  O91  1  0.53830000  0.21760000  0.71210000  1
  O  O92  1  0.17370000  0.19680000  0.72040000  1
  O  O93  1  0.82630000  0.69680000  0.72040000  1
  O  O94  1  0.17370000  0.69680000  0.77960000  1
  O  O95  1  0.82630000  0.19680000  0.77960000  1
  O  O96  1  0.46170000  0.21760000  0.78790000  1
  O  O97  1  0.53830000  0.71760000  0.78790000  1
  O  O98  1  0.30150000  0.56330000  0.83680000  1
  O  O99  1  0.69850000  0.06330000  0.83680000  1
  O  O100  1  0.09420000  0.92270000  0.83810000  1
  O  O101  1  0.90580000  0.42270000  0.83810000  1
  O  O102  1  0.12410000  0.34740000  0.87580000  1
  O  O103  1  0.87590000  0.84740000  0.87580000  1
