# generated using pymatgen
data_Cu2H36C61(N3O2)4
_symmetry_space_group_name_H-M   'P 1'
_cell_length_a   22.80500000
_cell_length_b   22.80500000
_cell_length_c   44.07270000
_cell_angle_alpha   90.00000000
_cell_angle_beta   90.00000000
_cell_angle_gamma   90.00000000
_symmetry_Int_Tables_number   1
_chemical_formula_structural   Cu2H36C61(N3O2)4
_chemical_formula_sum   'Cu8 H144 C244 N48 O32'
_cell_volume   22920.80204542
_cell_formula_units_Z   4
loop_
 _symmetry_equiv_pos_site_id
 _symmetry_equiv_pos_as_xyz
  1  'x, y, z'
loop_
 _atom_site_type_symbol
 _atom_site_label
 _atom_site_symmetry_multiplicity
 _atom_site_fract_x
 _atom_site_fract_y
 _atom_site_fract_z
 _atom_site_occupancy
  Cu  Cu0  1  0.01549000  0.05582000  0.86105000  1
  Cu  Cu1  1  0.05582000  0.01549000  0.13895000  1
  Cu  Cu2  1  0.44418000  0.51549000  0.36105000  1
  Cu  Cu3  1  0.48451000  0.55582000  0.63895000  1
  Cu  Cu4  1  0.51549000  0.44418000  0.63895000  1
  Cu  Cu5  1  0.55582000  0.48451000  0.36105000  1
  Cu  Cu6  1  0.94418000  0.98451000  0.13895000  1
  Cu  Cu7  1  0.98451000  0.94418000  0.86105000  1
  H  H8  1  0.00647000  0.28979000  0.28304000  1
  H  H9  1  0.00723000  0.29362000  0.00009000  1
  H  H10  1  0.03090000  0.22117000  0.03302000  1
  H  H11  1  0.03115000  0.21515000  0.24252000  1
  H  H12  1  0.03560000  0.37218000  0.31241000  1
  H  H13  1  0.03775000  0.36610000  0.96501000  1
  H  H14  1  0.04600000  0.14900000  0.20489000  1
  H  H15  1  0.04963000  0.15750000  0.07385000  1
  H  H16  1  0.05125000  0.55631000  0.43431000  1
  H  H17  1  0.05631000  0.44875000  0.93431000  1
  H  H18  1  0.05687000  0.55882000  0.84450000  1
  H  H19  1  0.05882000  0.44313000  0.34450000  1
  H  H20  1  0.05948000  0.39767000  0.88023000  1
  H  H21  1  0.06272000  0.40075000  0.39729000  1
  H  H22  1  0.09757000  0.88512000  0.93059000  1
  H  H23  1  0.09925000  0.56272000  0.89729000  1
  H  H24  1  0.10233000  0.55948000  0.38023000  1
  H  H25  1  0.10578000  0.87914000  0.79206000  1
  H  H26  1  0.11488000  0.90243000  0.06941000  1
  H  H27  1  0.12086000  0.89422000  0.20794000  1
  H  H28  1  0.12166000  0.64219000  0.35018000  1
  H  H29  1  0.12565000  0.63552000  0.92959000  1
  H  H30  1  0.12782000  0.53560000  0.81241000  1
  H  H31  1  0.13384000  0.83747000  0.03044000  1
  H  H32  1  0.13390000  0.53775000  0.46501000  1
  H  H33  1  0.13552000  0.37435000  0.42959000  1
  H  H34  1  0.13768000  0.82719000  0.24672000  1
  H  H35  1  0.14219000  0.37834000  0.85018000  1
  H  H36  1  0.14900000  0.04600000  0.79511000  1
  H  H37  1  0.15750000  0.04963000  0.92615000  1
  H  H38  1  0.16253000  0.86616000  0.96956000  1
  H  H39  1  0.17281000  0.86232000  0.75328000  1
  H  H40  1  0.20638000  0.50723000  0.50009000  1
  H  H41  1  0.21021000  0.50647000  0.78304000  1
  H  H42  1  0.21515000  0.03115000  0.75748000  1
  H  H43  1  0.22117000  0.03090000  0.96698000  1
  H  H44  1  0.27883000  0.53090000  0.53302000  1
  H  H45  1  0.28485000  0.53115000  0.74252000  1
  H  H46  1  0.28979000  0.00647000  0.71696000  1
  H  H47  1  0.29362000  0.00723000  0.99991000  1
  H  H48  1  0.32719000  0.36232000  0.74672000  1
  H  H49  1  0.33747000  0.36616000  0.53044000  1
  H  H50  1  0.34250000  0.54963000  0.57385000  1
  H  H51  1  0.35100000  0.54600000  0.70489000  1
  H  H52  1  0.35781000  0.87834000  0.64982000  1
  H  H53  1  0.36232000  0.32719000  0.25328000  1
  H  H54  1  0.36448000  0.87435000  0.07041000  1
  H  H55  1  0.36610000  0.03775000  0.03499000  1
  H  H56  1  0.36616000  0.33747000  0.46956000  1
  H  H57  1  0.37218000  0.03560000  0.68759000  1
  H  H58  1  0.37435000  0.13552000  0.57041000  1
  H  H59  1  0.37834000  0.14219000  0.14982000  1
  H  H60  1  0.37914000  0.39422000  0.29206000  1
  H  H61  1  0.38512000  0.40243000  0.43059000  1
  H  H62  1  0.39422000  0.37914000  0.70794000  1
  H  H63  1  0.39767000  0.05948000  0.11977000  1
  H  H64  1  0.40075000  0.06272000  0.60271000  1
  H  H65  1  0.40243000  0.38512000  0.56941000  1
  H  H66  1  0.43728000  0.90075000  0.10271000  1
  H  H67  1  0.44052000  0.89767000  0.61977000  1
  H  H68  1  0.44118000  0.94313000  0.15550000  1
  H  H69  1  0.44313000  0.05882000  0.65550000  1
  H  H70  1  0.44369000  0.94875000  0.56569000  1
  H  H71  1  0.44875000  0.05631000  0.06569000  1
  H  H72  1  0.45037000  0.65750000  0.42615000  1
  H  H73  1  0.45400000  0.64900000  0.29511000  1
  H  H74  1  0.46225000  0.86610000  0.53499000  1
  H  H75  1  0.46440000  0.87218000  0.18759000  1
  H  H76  1  0.46885000  0.71515000  0.25748000  1
  H  H77  1  0.46910000  0.72117000  0.46698000  1
  H  H78  1  0.49277000  0.79362000  0.49991000  1
  H  H79  1  0.49353000  0.78979000  0.21696000  1
  H  H80  1  0.50647000  0.21021000  0.21696000  1
  H  H81  1  0.50723000  0.20638000  0.49991000  1
  H  H82  1  0.53090000  0.27883000  0.46698000  1
  H  H83  1  0.53115000  0.28485000  0.25748000  1
  H  H84  1  0.53560000  0.12782000  0.18759000  1
  H  H85  1  0.53775000  0.13390000  0.53499000  1
  H  H86  1  0.54600000  0.35100000  0.29511000  1
  H  H87  1  0.54963000  0.34250000  0.42615000  1
  H  H88  1  0.55125000  0.94369000  0.06569000  1
  H  H89  1  0.55631000  0.05125000  0.56569000  1
  H  H90  1  0.55687000  0.94118000  0.65550000  1
  H  H91  1  0.55882000  0.05687000  0.15550000  1
  H  H92  1  0.55948000  0.10233000  0.61977000  1
  H  H93  1  0.56272000  0.09925000  0.10271000  1
  H  H94  1  0.59757000  0.61488000  0.56941000  1
  H  H95  1  0.59925000  0.93728000  0.60271000  1
  H  H96  1  0.60233000  0.94052000  0.11977000  1
  H  H97  1  0.60578000  0.62086000  0.70794000  1
  H  H98  1  0.61488000  0.59757000  0.43059000  1
  H  H99  1  0.62086000  0.60578000  0.29206000  1
  H  H100  1  0.62166000  0.85781000  0.14982000  1
  H  H101  1  0.62565000  0.86448000  0.57041000  1
  H  H102  1  0.62782000  0.96440000  0.68759000  1
  H  H103  1  0.63384000  0.66253000  0.46956000  1
  H  H104  1  0.63390000  0.96225000  0.03499000  1
  H  H105  1  0.63552000  0.12565000  0.07041000  1
  H  H106  1  0.63768000  0.67281000  0.25328000  1
  H  H107  1  0.64219000  0.12166000  0.64982000  1
  H  H108  1  0.64900000  0.45400000  0.70489000  1
  H  H109  1  0.65750000  0.45037000  0.57385000  1
  H  H110  1  0.66253000  0.63384000  0.53044000  1
  H  H111  1  0.67281000  0.63768000  0.74672000  1
  H  H112  1  0.70638000  0.99277000  0.99991000  1
  H  H113  1  0.71021000  0.99353000  0.71696000  1
  H  H114  1  0.71515000  0.46885000  0.74252000  1
  H  H115  1  0.72117000  0.46910000  0.53302000  1
  H  H116  1  0.77883000  0.96910000  0.96698000  1
  H  H117  1  0.78485000  0.96885000  0.75748000  1
  H  H118  1  0.78979000  0.49353000  0.78304000  1
  H  H119  1  0.79362000  0.49277000  0.50009000  1
  H  H120  1  0.82719000  0.13768000  0.75328000  1
  H  H121  1  0.83747000  0.13384000  0.96956000  1
  H  H122  1  0.84250000  0.95037000  0.92615000  1
  H  H123  1  0.85100000  0.95400000  0.79511000  1
  H  H124  1  0.85781000  0.62166000  0.85018000  1
  H  H125  1  0.86232000  0.17281000  0.24672000  1
  H  H126  1  0.86448000  0.62565000  0.42959000  1
  H  H127  1  0.86610000  0.46225000  0.46501000  1
  H  H128  1  0.86616000  0.16253000  0.03044000  1
  H  H129  1  0.87218000  0.46440000  0.81241000  1
  H  H130  1  0.87435000  0.36448000  0.92959000  1
  H  H131  1  0.87834000  0.35781000  0.35018000  1
  H  H132  1  0.87914000  0.10578000  0.20794000  1
  H  H133  1  0.88512000  0.09757000  0.06941000  1
  H  H134  1  0.89422000  0.12086000  0.79206000  1
  H  H135  1  0.89767000  0.44052000  0.38023000  1
  H  H136  1  0.90075000  0.43728000  0.89729000  1
  H  H137  1  0.90243000  0.11488000  0.93059000  1
  H  H138  1  0.93728000  0.59925000  0.39729000  1
  H  H139  1  0.94052000  0.60233000  0.88023000  1
  H  H140  1  0.94118000  0.55687000  0.34450000  1
  H  H141  1  0.94313000  0.44118000  0.84450000  1
  H  H142  1  0.94369000  0.55125000  0.93431000  1
  H  H143  1  0.94875000  0.44369000  0.43431000  1
  H  H144  1  0.95037000  0.84250000  0.07385000  1
  H  H145  1  0.95400000  0.85100000  0.20489000  1
  H  H146  1  0.96225000  0.63390000  0.96501000  1
  H  H147  1  0.96440000  0.62782000  0.31241000  1
  H  H148  1  0.96885000  0.78485000  0.24252000  1
  H  H149  1  0.96910000  0.77883000  0.03302000  1
  H  H150  1  0.99277000  0.70638000  0.00009000  1
  H  H151  1  0.99353000  0.71021000  0.28304000  1
  C  C152  1  0.00000000  0.50000000  0.38990000  1
  C  C153  1  0.00000000  0.50000000  0.88990000  1
  C  C154  1  0.00020000  0.80720000  0.23550000  1
  C  C155  1  0.00110000  0.19710000  0.04027000  1
  C  C156  1  0.00780000  0.38540000  0.32625000  1
  C  C157  1  0.00870000  0.15350000  0.21310000  1
  C  C158  1  0.00950000  0.38090000  0.95187000  1
  C  C159  1  0.01300000  0.15760000  0.06457000  1
  C  C160  1  0.01710000  0.55170000  0.91017000  1
  C  C161  1  0.01850000  0.54990000  0.36772000  1
  C  C162  1  0.01980000  0.92490000  0.09830000  1
  C  C163  1  0.02080000  0.42910000  0.93214000  1
  C  C164  1  0.02130000  0.42730000  0.34542000  1
  C  C165  1  0.02270000  0.92460000  0.17978000  1
  C  C166  1  0.02990000  0.71690000  0.99332000  1
  C  C167  1  0.03040000  0.88100000  0.07431000  1
  C  C168  1  0.03350000  0.71530000  0.28630000  1
  C  C169  1  0.03480000  0.87850000  0.20293000  1
  C  C170  1  0.04770000  0.63930000  0.32654000  1
  C  C171  1  0.04840000  0.64320000  0.95010000  1
  C  C172  1  0.04990000  0.48150000  0.86772000  1
  C  C173  1  0.05170000  0.48290000  0.41017000  1
  C  C174  1  0.05210000  0.79970000  0.24760000  1
  C  C175  1  0.05600000  0.79940000  0.02690000  1
  C  C176  1  0.05970000  0.69450000  0.97100000  1
  C  C177  1  0.06690000  0.68450000  0.30670000  1
  C  C178  1  0.07090000  0.52080000  0.43214000  1
  C  C179  1  0.07130000  0.57660000  0.91087000  1
  C  C180  1  0.07270000  0.52130000  0.84542000  1
  C  C181  1  0.07340000  0.57440000  0.36750000  1
  C  C182  1  0.07440000  0.42660000  0.86750000  1
  C  C183  1  0.07510000  0.98020000  0.90170000  1
  C  C184  1  0.07540000  0.97730000  0.82022000  1
  C  C185  1  0.07660000  0.42870000  0.41087000  1
  C  C186  1  0.08520000  0.87820000  0.06223000  1
  C  C187  1  0.08630000  0.62230000  0.34810000  1
  C  C188  1  0.08760000  0.62090000  0.93019000  1
  C  C189  1  0.09010000  0.87160000  0.21530000  1
  C  C190  1  0.09630000  0.83800000  0.03865000  1
  C  C191  1  0.10070000  0.83200000  0.23820000  1
  C  C192  1  0.11460000  0.50780000  0.82625000  1
  C  C193  1  0.11900000  0.96960000  0.92569000  1
  C  C194  1  0.11910000  0.50950000  0.45187000  1
  C  C195  1  0.12090000  0.41240000  0.43019000  1
  C  C196  1  0.12150000  0.96520000  0.79707000  1
  C  C197  1  0.12180000  0.91480000  0.93777000  1
  C  C198  1  0.12230000  0.41370000  0.84810000  1
  C  C199  1  0.12840000  0.90990000  0.78470000  1
  C  C200  1  0.13930000  0.45230000  0.82654000  1
  C  C201  1  0.14320000  0.45160000  0.45010000  1
  C  C202  1  0.15350000  0.00870000  0.78690000  1
  C  C203  1  0.15760000  0.01300000  0.93543000  1
  C  C204  1  0.16200000  0.90370000  0.96135000  1
  C  C205  1  0.16800000  0.89930000  0.76180000  1
  C  C206  1  0.18450000  0.43310000  0.80670000  1
  C  C207  1  0.19280000  0.99980000  0.76450000  1
  C  C208  1  0.19450000  0.44030000  0.47100000  1
  C  C209  1  0.19710000  0.00110000  0.95973000  1
  C  C210  1  0.20030000  0.94790000  0.75240000  1
  C  C211  1  0.20060000  0.94400000  0.97310000  1
  C  C212  1  0.21530000  0.46650000  0.78630000  1
  C  C213  1  0.21690000  0.47010000  0.49332000  1
  C  C214  1  0.28310000  0.97010000  0.00668000  1
  C  C215  1  0.28470000  0.96650000  0.71370000  1
  C  C216  1  0.29940000  0.44400000  0.52690000  1
  C  C217  1  0.29970000  0.44790000  0.74760000  1
  C  C218  1  0.30290000  0.50110000  0.54027000  1
  C  C219  1  0.30550000  0.94030000  0.02900000  1
  C  C220  1  0.30720000  0.49980000  0.73550000  1
  C  C221  1  0.31550000  0.93310000  0.69330000  1
  C  C222  1  0.33200000  0.39930000  0.73820000  1
  C  C223  1  0.33800000  0.40370000  0.53865000  1
  C  C224  1  0.34240000  0.51300000  0.56457000  1
  C  C225  1  0.34650000  0.50870000  0.71310000  1
  C  C226  1  0.35680000  0.95160000  0.04990000  1
  C  C227  1  0.36070000  0.95230000  0.67346000  1
  C  C228  1  0.37160000  0.40990000  0.71530000  1
  C  C229  1  0.37770000  0.91370000  0.65190000  1
  C  C230  1  0.37820000  0.41480000  0.56223000  1
  C  C231  1  0.37850000  0.46520000  0.70293000  1
  C  C232  1  0.37910000  0.91240000  0.06981000  1
  C  C233  1  0.38090000  0.00950000  0.04813000  1
  C  C234  1  0.38100000  0.46960000  0.57431000  1
  C  C235  1  0.38540000  0.00780000  0.67375000  1
  C  C236  1  0.39930000  0.33200000  0.26180000  1
  C  C237  1  0.40370000  0.33800000  0.46135000  1
  C  C238  1  0.40990000  0.37160000  0.28470000  1
  C  C239  1  0.41240000  0.12090000  0.56981000  1
  C  C240  1  0.41370000  0.12230000  0.15190000  1
  C  C241  1  0.41480000  0.37820000  0.43777000  1
  C  C242  1  0.42340000  0.92870000  0.08913000  1
  C  C243  1  0.42460000  0.47730000  0.67978000  1
  C  C244  1  0.42490000  0.48020000  0.59830000  1
  C  C245  1  0.42560000  0.92660000  0.63250000  1
  C  C246  1  0.42660000  0.07440000  0.13250000  1
  C  C247  1  0.42730000  0.02130000  0.65458000  1
  C  C248  1  0.42870000  0.07660000  0.58913000  1
  C  C249  1  0.42910000  0.02080000  0.06786000  1
  C  C250  1  0.43310000  0.18450000  0.19330000  1
  C  C251  1  0.44030000  0.19450000  0.52900000  1
  C  C252  1  0.44400000  0.29940000  0.47310000  1
  C  C253  1  0.44790000  0.29970000  0.25240000  1
  C  C254  1  0.44830000  0.98290000  0.08983000  1
  C  C255  1  0.45010000  0.98150000  0.63228000  1
  C  C256  1  0.45160000  0.14320000  0.54990000  1
  C  C257  1  0.45230000  0.13930000  0.17346000  1
  C  C258  1  0.46520000  0.37850000  0.29707000  1
  C  C259  1  0.46650000  0.21530000  0.21370000  1
  C  C260  1  0.46960000  0.38100000  0.42569000  1
  C  C261  1  0.47010000  0.21690000  0.50668000  1
  C  C262  1  0.47730000  0.42460000  0.32022000  1
  C  C263  1  0.47870000  0.92730000  0.15458000  1
  C  C264  1  0.47920000  0.92910000  0.56786000  1
  C  C265  1  0.48020000  0.42490000  0.40170000  1
  C  C266  1  0.48150000  0.04990000  0.13228000  1
  C  C267  1  0.48290000  0.05170000  0.58983000  1
  C  C268  1  0.48700000  0.65760000  0.43543000  1
  C  C269  1  0.49050000  0.88090000  0.54813000  1
  C  C270  1  0.49130000  0.65350000  0.28690000  1
  C  C271  1  0.49220000  0.88540000  0.17375000  1
  C  C272  1  0.49890000  0.69710000  0.45973000  1
  C  C273  1  0.49980000  0.30720000  0.26450000  1
  C  C274  1  0.50000000  0.00000000  0.11010000  1
  C  C275  1  0.50000000  0.00000000  0.61010000  1
  C  C276  1  0.50020000  0.69280000  0.26450000  1
  C  C277  1  0.50110000  0.30290000  0.45973000  1
  C  C278  1  0.50780000  0.11460000  0.17375000  1
  C  C279  1  0.50870000  0.34650000  0.28690000  1
  C  C280  1  0.50950000  0.11910000  0.54813000  1
  C  C281  1  0.51300000  0.34240000  0.43543000  1
  C  C282  1  0.51710000  0.94830000  0.58983000  1
  C  C283  1  0.51850000  0.95010000  0.13228000  1
  C  C284  1  0.51980000  0.57510000  0.40170000  1
  C  C285  1  0.52080000  0.07090000  0.56786000  1
  C  C286  1  0.52130000  0.07270000  0.15458000  1
  C  C287  1  0.52270000  0.57540000  0.32022000  1
  C  C288  1  0.52990000  0.78310000  0.50668000  1
  C  C289  1  0.53040000  0.61900000  0.42569000  1
  C  C290  1  0.53350000  0.78470000  0.21370000  1
  C  C291  1  0.53480000  0.62150000  0.29707000  1
  C  C292  1  0.54770000  0.86070000  0.17346000  1
  C  C293  1  0.54840000  0.85680000  0.54990000  1
  C  C294  1  0.54990000  0.01850000  0.63228000  1
  C  C295  1  0.55170000  0.01710000  0.08983000  1
  C  C296  1  0.55210000  0.70030000  0.25240000  1
  C  C297  1  0.55600000  0.70060000  0.47310000  1
  C  C298  1  0.55970000  0.80550000  0.52900000  1
  C  C299  1  0.56690000  0.81550000  0.19330000  1
  C  C300  1  0.57090000  0.97920000  0.06786000  1
  C  C301  1  0.57130000  0.92340000  0.58913000  1
  C  C302  1  0.57270000  0.97870000  0.65458000  1
  C  C303  1  0.57340000  0.92560000  0.13250000  1
  C  C304  1  0.57440000  0.07340000  0.63250000  1
  C  C305  1  0.57510000  0.51980000  0.59830000  1
  C  C306  1  0.57540000  0.52270000  0.67978000  1
  C  C307  1  0.57660000  0.07130000  0.08913000  1
  C  C308  1  0.58520000  0.62180000  0.43777000  1
  C  C309  1  0.58630000  0.87770000  0.15190000  1
  C  C310  1  0.58760000  0.87910000  0.56981000  1
  C  C311  1  0.59010000  0.62840000  0.28470000  1
  C  C312  1  0.59630000  0.66200000  0.46135000  1
  C  C313  1  0.60070000  0.66800000  0.26180000  1
  C  C314  1  0.61460000  0.99220000  0.67375000  1
  C  C315  1  0.61900000  0.53040000  0.57431000  1
  C  C316  1  0.61910000  0.99050000  0.04813000  1
  C  C317  1  0.62090000  0.08760000  0.06981000  1
  C  C318  1  0.62150000  0.53480000  0.70293000  1
  C  C319  1  0.62180000  0.58520000  0.56223000  1
  C  C320  1  0.62230000  0.08630000  0.65190000  1
  C  C321  1  0.62840000  0.59010000  0.71530000  1
  C  C322  1  0.63930000  0.04770000  0.67346000  1
  C  C323  1  0.64320000  0.04840000  0.04990000  1
  C  C324  1  0.65350000  0.49130000  0.71310000  1
  C  C325  1  0.65760000  0.48700000  0.56457000  1
  C  C326  1  0.66200000  0.59630000  0.53865000  1
  C  C327  1  0.66800000  0.60070000  0.73820000  1
  C  C328  1  0.68450000  0.06690000  0.69330000  1
  C  C329  1  0.69280000  0.50020000  0.73550000  1
  C  C330  1  0.69450000  0.05970000  0.02900000  1
  C  C331  1  0.69710000  0.49890000  0.54027000  1
  C  C332  1  0.70030000  0.55210000  0.74760000  1
  C  C333  1  0.70060000  0.55600000  0.52690000  1
  C  C334  1  0.71530000  0.03350000  0.71370000  1
  C  C335  1  0.71690000  0.02990000  0.00668000  1
  C  C336  1  0.78310000  0.52990000  0.49332000  1
  C  C337  1  0.78470000  0.53350000  0.78630000  1
  C  C338  1  0.79940000  0.05600000  0.97310000  1
  C  C339  1  0.79970000  0.05210000  0.75240000  1
  C  C340  1  0.80290000  0.99890000  0.95973000  1
  C  C341  1  0.80550000  0.55970000  0.47100000  1
  C  C342  1  0.80720000  0.00020000  0.76450000  1
  C  C343  1  0.81550000  0.56690000  0.80670000  1
  C  C344  1  0.83200000  0.10070000  0.76180000  1
  C  C345  1  0.83800000  0.09630000  0.96135000  1
  C  C346  1  0.84240000  0.98700000  0.93543000  1
  C  C347  1  0.84650000  0.99130000  0.78690000  1
  C  C348  1  0.85680000  0.54840000  0.45010000  1
  C  C349  1  0.86070000  0.54770000  0.82654000  1
  C  C350  1  0.87160000  0.09010000  0.78470000  1
  C  C351  1  0.87770000  0.58630000  0.84810000  1
  C  C352  1  0.87820000  0.08520000  0.93777000  1
  C  C353  1  0.87850000  0.03480000  0.79707000  1
  C  C354  1  0.87910000  0.58760000  0.43019000  1
  C  C355  1  0.88090000  0.49050000  0.45187000  1
  C  C356  1  0.88100000  0.03040000  0.92569000  1
  C  C357  1  0.88540000  0.49220000  0.82625000  1
  C  C358  1  0.89930000  0.16800000  0.23820000  1
  C  C359  1  0.90370000  0.16200000  0.03865000  1
  C  C360  1  0.90990000  0.12840000  0.21530000  1
  C  C361  1  0.91240000  0.37910000  0.93019000  1
  C  C362  1  0.91370000  0.37770000  0.34810000  1
  C  C363  1  0.91480000  0.12180000  0.06223000  1
  C  C364  1  0.92340000  0.57130000  0.41087000  1
  C  C365  1  0.92460000  0.02270000  0.82022000  1
  C  C366  1  0.92490000  0.01980000  0.90170000  1
  C  C367  1  0.92560000  0.57340000  0.86750000  1
  C  C368  1  0.92660000  0.42560000  0.36750000  1
  C  C369  1  0.92730000  0.47870000  0.84542000  1
  C  C370  1  0.92870000  0.42340000  0.91087000  1
  C  C371  1  0.92910000  0.47920000  0.43214000  1
  C  C372  1  0.93310000  0.31550000  0.30670000  1
  C  C373  1  0.94030000  0.30550000  0.97100000  1
  C  C374  1  0.94400000  0.20060000  0.02690000  1
  C  C375  1  0.94790000  0.20030000  0.24760000  1
  C  C376  1  0.94830000  0.51710000  0.41017000  1
  C  C377  1  0.95010000  0.51850000  0.86772000  1
  C  C378  1  0.95160000  0.35680000  0.95010000  1
  C  C379  1  0.95230000  0.36070000  0.32654000  1
  C  C380  1  0.96520000  0.12150000  0.20293000  1
  C  C381  1  0.96650000  0.28470000  0.28630000  1
  C  C382  1  0.96960000  0.11900000  0.07431000  1
  C  C383  1  0.97010000  0.28310000  0.99332000  1
  C  C384  1  0.97730000  0.07540000  0.17978000  1
  C  C385  1  0.97870000  0.57270000  0.34542000  1
  C  C386  1  0.97920000  0.57090000  0.93214000  1
  C  C387  1  0.98020000  0.07510000  0.09830000  1
  C  C388  1  0.98150000  0.45010000  0.36772000  1
  C  C389  1  0.98290000  0.44830000  0.91017000  1
  C  C390  1  0.98700000  0.84240000  0.06457000  1
  C  C391  1  0.99050000  0.61910000  0.95187000  1
  C  C392  1  0.99130000  0.84650000  0.21310000  1
  C  C393  1  0.99220000  0.61460000  0.32625000  1
  C  C394  1  0.99890000  0.80290000  0.04027000  1
  C  C395  1  0.99980000  0.19280000  0.23550000  1
  N  N396  1  0.06480000  0.75770000  0.00407000  1
  N  N397  1  0.06810000  0.75440000  0.27160000  1
  N  N398  1  0.10850000  0.72430000  0.96750000  1
  N  N399  1  0.10960000  0.76630000  0.98670000  1
  N  N400  1  0.11860000  0.71100000  0.30600000  1
  N  N401  1  0.12340000  0.75230000  0.28590000  1
  N  N402  1  0.21100000  0.38140000  0.80600000  1
  N  N403  1  0.22430000  0.39150000  0.46750000  1
  N  N404  1  0.23370000  0.89040000  0.01330000  1
  N  N405  1  0.24230000  0.93520000  0.99593000  1
  N  N406  1  0.24560000  0.93190000  0.72840000  1
  N  N407  1  0.24770000  0.87660000  0.71410000  1
  N  N408  1  0.25230000  0.37660000  0.78590000  1
  N  N409  1  0.25440000  0.43190000  0.77160000  1
  N  N410  1  0.25770000  0.43520000  0.50407000  1
  N  N411  1  0.26630000  0.39040000  0.48670000  1
  N  N412  1  0.27570000  0.89150000  0.03250000  1
  N  N413  1  0.28900000  0.88140000  0.69400000  1
  N  N414  1  0.37660000  0.25230000  0.21410000  1
  N  N415  1  0.38140000  0.21100000  0.19400000  1
  N  N416  1  0.39040000  0.26630000  0.51330000  1
  N  N417  1  0.39150000  0.22430000  0.53250000  1
  N  N418  1  0.43190000  0.25440000  0.22840000  1
  N  N419  1  0.43520000  0.25770000  0.49593000  1
  N  N420  1  0.56480000  0.74230000  0.49593000  1
  N  N421  1  0.56810000  0.74560000  0.22840000  1
  N  N422  1  0.60850000  0.77570000  0.53250000  1
  N  N423  1  0.60960000  0.73370000  0.51330000  1
  N  N424  1  0.61860000  0.78900000  0.19400000  1
  N  N425  1  0.62340000  0.74770000  0.21410000  1
  N  N426  1  0.71100000  0.11860000  0.69400000  1
  N  N427  1  0.72430000  0.10850000  0.03250000  1
  N  N428  1  0.73370000  0.60960000  0.48670000  1
  N  N429  1  0.74230000  0.56480000  0.50407000  1
  N  N430  1  0.74560000  0.56810000  0.77160000  1
  N  N431  1  0.74770000  0.62340000  0.78590000  1
  N  N432  1  0.75230000  0.12340000  0.71410000  1
  N  N433  1  0.75440000  0.06810000  0.72840000  1
  N  N434  1  0.75770000  0.06480000  0.99593000  1
  N  N435  1  0.76630000  0.10960000  0.01330000  1
  N  N436  1  0.77570000  0.60850000  0.46750000  1
  N  N437  1  0.78900000  0.61860000  0.80600000  1
  N  N438  1  0.87660000  0.24770000  0.28590000  1
  N  N439  1  0.88140000  0.28900000  0.30600000  1
  N  N440  1  0.89040000  0.23370000  0.98670000  1
  N  N441  1  0.89150000  0.27570000  0.96750000  1
  N  N442  1  0.93190000  0.24560000  0.27160000  1
  N  N443  1  0.93520000  0.24230000  0.00407000  1
  O  O444  1  0.03220000  0.07040000  0.16996000  1
  O  O445  1  0.03290000  0.07030000  0.10794000  1
  O  O446  1  0.04305000  0.93870000  0.89259000  1
  O  O447  1  0.04450000  0.93470000  0.82993000  1
  O  O448  1  0.06130000  0.95695000  0.10741000  1
  O  O449  1  0.06530000  0.95550000  0.17007000  1
  O  O450  1  0.07030000  0.03290000  0.89206000  1
  O  O451  1  0.07040000  0.03220000  0.83004000  1
  O  O452  1  0.42960000  0.53220000  0.66996000  1
  O  O453  1  0.42970000  0.53290000  0.60794000  1
  O  O454  1  0.43470000  0.45550000  0.32993000  1
  O  O455  1  0.43870000  0.45695000  0.39259000  1
  O  O456  1  0.45550000  0.43470000  0.67007000  1
  O  O457  1  0.45695000  0.43870000  0.60741000  1
  O  O458  1  0.46710000  0.57030000  0.39206000  1
  O  O459  1  0.46780000  0.57040000  0.33004000  1
  O  O460  1  0.53220000  0.42960000  0.33004000  1
  O  O461  1  0.53290000  0.42970000  0.39206000  1
  O  O462  1  0.54305000  0.56130000  0.60741000  1
  O  O463  1  0.54450000  0.56530000  0.67007000  1
  O  O464  1  0.56130000  0.54305000  0.39259000  1
  O  O465  1  0.56530000  0.54450000  0.32993000  1
  O  O466  1  0.57030000  0.46710000  0.60794000  1
  O  O467  1  0.57040000  0.46780000  0.66996000  1
  O  O468  1  0.92960000  0.96780000  0.83004000  1
  O  O469  1  0.92970000  0.96710000  0.89206000  1
  O  O470  1  0.93470000  0.04450000  0.17007000  1
  O  O471  1  0.93870000  0.04305000  0.10741000  1
  O  O472  1  0.95550000  0.06530000  0.82993000  1
  O  O473  1  0.95695000  0.06130000  0.89259000  1
  O  O474  1  0.96710000  0.92970000  0.10794000  1
  O  O475  1  0.96780000  0.92960000  0.16996000  1
