# generated using pymatgen
data_Cd5H16C24(N10Cl3)2
_symmetry_space_group_name_H-M   'P 1'
_cell_length_a   12.53000000
_cell_length_b   16.13040000
_cell_length_c   20.89280000
_cell_angle_alpha   67.39710000
_cell_angle_beta   72.55060000
_cell_angle_gamma   67.14520000
_symmetry_Int_Tables_number   1
_chemical_formula_structural   Cd5H16C24(N10Cl3)2
_chemical_formula_sum   'Cd10 H32 C48 N40 Cl12'
_cell_volume   3535.60018426
_cell_formula_units_Z   2
loop_
 _symmetry_equiv_pos_site_id
 _symmetry_equiv_pos_as_xyz
  1  'x, y, z'
loop_
 _atom_site_type_symbol
 _atom_site_label
 _atom_site_symmetry_multiplicity
 _atom_site_fract_x
 _atom_site_fract_y
 _atom_site_fract_z
 _atom_site_occupancy
  Cd  Cd0  1  0.13267000  0.24016000  0.26034000  1
  Cd  Cd1  1  0.14792000  0.83560000  0.65466000  1
  Cd  Cd2  1  0.36182000  0.33560000  0.15466000  1
  Cd  Cd3  1  0.36683000  0.74016000  0.76034000  1
  Cd  Cd4  1  0.50000000  0.00000000  0.00000000  1
  Cd  Cd5  1  0.50000000  0.50000000  0.50000000  1
  Cd  Cd6  1  0.63317000  0.25984000  0.23966000  1
  Cd  Cd7  1  0.63818000  0.66440000  0.84534000  1
  Cd  Cd8  1  0.85208000  0.16440000  0.34534000  1
  Cd  Cd9  1  0.86733000  0.75984000  0.73966000  1
  H  H10  1  0.06460000  0.01560000  0.51900000  1
  H  H11  1  0.10380000  0.47480000  0.96160000  1
  H  H12  1  0.12780000  0.79900000  0.45860000  1
  H  H13  1  0.13200000  0.12800000  0.42600000  1
  H  H14  1  0.18830000  0.36830000  0.05930000  1
  H  H15  1  0.24230000  0.64540000  0.51300000  1
  H  H16  1  0.31400000  0.62800000  0.92600000  1
  H  H17  1  0.37860000  0.19930000  0.89510000  1
  H  H18  1  0.37950000  0.35280000  0.84320000  1
  H  H19  1  0.38410000  0.86830000  0.55930000  1
  H  H20  1  0.38540000  0.70100000  0.04140000  1
  H  H21  1  0.40070000  0.85460000  0.98700000  1
  H  H22  1  0.40080000  0.51560000  0.01900000  1
  H  H23  1  0.42450000  0.85280000  0.34320000  1
  H  H24  1  0.45980000  0.97480000  0.46160000  1
  H  H25  1  0.47300000  0.30070000  0.60490000  1
  H  H26  1  0.52700000  0.69930000  0.39510000  1
  H  H27  1  0.54020000  0.02520000  0.53840000  1
  H  H28  1  0.57550000  0.14720000  0.65680000  1
  H  H29  1  0.59920000  0.48440000  0.98100000  1
  H  H30  1  0.59930000  0.14540000  0.01300000  1
  H  H31  1  0.61460000  0.29900000  0.95860000  1
  H  H32  1  0.61590000  0.13170000  0.44070000  1
  H  H33  1  0.62050000  0.64720000  0.15680000  1
  H  H34  1  0.62140000  0.80070000  0.10490000  1
  H  H35  1  0.68600000  0.37200000  0.07400000  1
  H  H36  1  0.75770000  0.35460000  0.48700000  1
  H  H37  1  0.81170000  0.63170000  0.94070000  1
  H  H38  1  0.86800000  0.87200000  0.57400000  1
  H  H39  1  0.87220000  0.20100000  0.54140000  1
  H  H40  1  0.89620000  0.52520000  0.03840000  1
  H  H41  1  0.93540000  0.98440000  0.48100000  1
  C  C42  1  0.14500000  0.63210000  0.87450000  1
  C  C43  1  0.14660000  0.00750000  0.50790000  1
  C  C44  1  0.16400000  0.48560000  0.97320000  1
  C  C45  1  0.18640000  0.07480000  0.45160000  1
  C  C46  1  0.19190000  0.93740000  0.35740000  1
  C  C47  1  0.19760000  0.56500000  0.93220000  1
  C  C48  1  0.21070000  0.77990000  0.44390000  1
  C  C49  1  0.21590000  0.42080000  0.03120000  1
  C  C50  1  0.26280000  0.84030000  0.39170000  1
  C  C51  1  0.28040000  0.68750000  0.47670000  1
  C  C52  1  0.28720000  0.57480000  0.95160000  1
  C  C53  1  0.30520000  0.06500000  0.43220000  1
  C  C54  1  0.33210000  0.92080000  0.53120000  1
  C  C55  1  0.33800000  0.50750000  0.00790000  1
  C  C56  1  0.34840000  0.13210000  0.37450000  1
  C  C57  1  0.37720000  0.98560000  0.47320000  1
  C  C58  1  0.38340000  0.81070000  0.37630000  1
  C  C59  1  0.42760000  0.21880000  0.90960000  1
  C  C60  1  0.42960000  0.31070000  0.87630000  1
  C  C61  1  0.43450000  0.72010000  0.05610000  1
  C  C62  1  0.44400000  0.71880000  0.40960000  1
  C  C63  1  0.44460000  0.81250000  0.02330000  1
  C  C64  1  0.48670000  0.56260000  0.14260000  1
  C  C65  1  0.49480000  0.65970000  0.10830000  1
  C  C66  1  0.50520000  0.34030000  0.89170000  1
  C  C67  1  0.51330000  0.43740000  0.85740000  1
  C  C68  1  0.55540000  0.18750000  0.97670000  1
  C  C69  1  0.55600000  0.28120000  0.59040000  1
  C  C70  1  0.56550000  0.27990000  0.94390000  1
  C  C71  1  0.57040000  0.68930000  0.12370000  1
  C  C72  1  0.57240000  0.78120000  0.09040000  1
  C  C73  1  0.61660000  0.18930000  0.62370000  1
  C  C74  1  0.62280000  0.01440000  0.52680000  1
  C  C75  1  0.65160000  0.86790000  0.62550000  1
  C  C76  1  0.66200000  0.49250000  0.99210000  1
  C  C77  1  0.66790000  0.07920000  0.46880000  1
  C  C78  1  0.69480000  0.93500000  0.56780000  1
  C  C79  1  0.71280000  0.42520000  0.04840000  1
  C  C80  1  0.71960000  0.31250000  0.52330000  1
  C  C81  1  0.73720000  0.15970000  0.60830000  1
  C  C82  1  0.78410000  0.57920000  0.96880000  1
  C  C83  1  0.78930000  0.22010000  0.55610000  1
  C  C84  1  0.80240000  0.43500000  0.06780000  1
  C  C85  1  0.80810000  0.06260000  0.64260000  1
  C  C86  1  0.81360000  0.92520000  0.54840000  1
  C  C87  1  0.83600000  0.51440000  0.02680000  1
  C  C88  1  0.85340000  0.99250000  0.49210000  1
  C  C89  1  0.85500000  0.36790000  0.12550000  1
  N  N90  1  0.01560000  0.71170000  0.80510000  1
  N  N91  1  0.03190000  0.64480000  0.86660000  1
  N  N92  1  0.04190000  0.05700000  0.33520000  1
  N  N93  1  0.07400000  0.96280000  0.37160000  1
  N  N94  1  0.10990000  0.74110000  0.77670000  1
  N  N95  1  0.13890000  0.08200000  0.30240000  1
  N  N96  1  0.19030000  0.69450000  0.81810000  1
  N  N97  1  0.21630000  0.93180000  0.54760000  1
  N  N98  1  0.23420000  0.00740000  0.31520000  1
  N  N99  1  0.29710000  0.19450000  0.31810000  1
  N  N100  1  0.30430000  0.43180000  0.04760000  1
  N  N101  1  0.37230000  0.24110000  0.27670000  1
  N  N102  1  0.39950000  0.65660000  0.45840000  1
  N  N103  1  0.40840000  0.53720000  0.12840000  1
  N  N104  1  0.43410000  0.44300000  0.16480000  1
  N  N105  1  0.44320000  0.50740000  0.81520000  1
  N  N106  1  0.45670000  0.14480000  0.36660000  1
  N  N107  1  0.46760000  0.21170000  0.30510000  1
  N  N108  1  0.47670000  0.58200000  0.80240000  1
  N  N109  1  0.48550000  0.15660000  0.95840000  1
  N  N110  1  0.51450000  0.84340000  0.04160000  1
  N  N111  1  0.52330000  0.41800000  0.19760000  1
  N  N112  1  0.53240000  0.78830000  0.69490000  1
  N  N113  1  0.54330000  0.85520000  0.63340000  1
  N  N114  1  0.55680000  0.49260000  0.18480000  1
  N  N115  1  0.56590000  0.55700000  0.83520000  1
  N  N116  1  0.59160000  0.46280000  0.87160000  1
  N  N117  1  0.60050000  0.34340000  0.54160000  1
  N  N118  1  0.62770000  0.75890000  0.72330000  1
  N  N119  1  0.69570000  0.56820000  0.95240000  1
  N  N120  1  0.70290000  0.80550000  0.68190000  1
  N  N121  1  0.76580000  0.99260000  0.68480000  1
  N  N122  1  0.78370000  0.06820000  0.45240000  1
  N  N123  1  0.80970000  0.30550000  0.18190000  1
  N  N124  1  0.86110000  0.91800000  0.69760000  1
  N  N125  1  0.89010000  0.25890000  0.22330000  1
  N  N126  1  0.92600000  0.03720000  0.62840000  1
  N  N127  1  0.95810000  0.94300000  0.66480000  1
  N  N128  1  0.96810000  0.35520000  0.13340000  1
  N  N129  1  0.98440000  0.28830000  0.19490000  1
  Cl  Cl130  1  0.04254000  0.73860000  0.63232000  1
  Cl  Cl131  1  0.14433000  0.40940000  0.21754000  1
  Cl  Cl132  1  0.22873000  0.90940000  0.71754000  1
  Cl  Cl133  1  0.29551000  0.20330000  0.15068000  1
  Cl  Cl134  1  0.35051000  0.70330000  0.65068000  1
  Cl  Cl135  1  0.41346000  0.76140000  0.86768000  1
  Cl  Cl136  1  0.58654000  0.23860000  0.13232000  1
  Cl  Cl137  1  0.64949000  0.29670000  0.34932000  1
  Cl  Cl138  1  0.70449000  0.79670000  0.84932000  1
  Cl  Cl139  1  0.77127000  0.09060000  0.28246000  1
  Cl  Cl140  1  0.85567000  0.59060000  0.78246000  1
  Cl  Cl141  1  0.95746000  0.26140000  0.36768000  1
