# generated using pymatgen
data_Ni3H38C52(N3O7)2
_symmetry_space_group_name_H-M   'P 1'
_cell_length_a   16.31160000
_cell_length_b   16.31160000
_cell_length_c   30.06000000
_cell_angle_alpha   90.00000000
_cell_angle_beta   90.00000000
_cell_angle_gamma   90.00000000
_symmetry_Int_Tables_number   1
_chemical_formula_structural   Ni3H38C52(N3O7)2
_chemical_formula_sum   'Ni12 H152 C208 N24 O56'
_cell_volume   7998.01293447
_cell_formula_units_Z   4
loop_
 _symmetry_equiv_pos_site_id
 _symmetry_equiv_pos_as_xyz
  1  'x, y, z'
loop_
 _atom_site_type_symbol
 _atom_site_label
 _atom_site_symmetry_multiplicity
 _atom_site_fract_x
 _atom_site_fract_y
 _atom_site_fract_z
 _atom_site_occupancy
  Ni  Ni0  1  0.01022000  0.26347000  0.74411000  1
  Ni  Ni1  1  0.01022000  0.73653000  0.75589000  1
  Ni  Ni2  1  0.26347000  0.01022000  0.00589000  1
  Ni  Ni3  1  0.26347000  0.98978000  0.49411000  1
  Ni  Ni4  1  0.47366000  0.47366000  0.37500000  1
  Ni  Ni5  1  0.47366000  0.52634000  0.12500000  1
  Ni  Ni6  1  0.52634000  0.47366000  0.62500000  1
  Ni  Ni7  1  0.52634000  0.52634000  0.87500000  1
  Ni  Ni8  1  0.73653000  0.01022000  0.99411000  1
  Ni  Ni9  1  0.73653000  0.98978000  0.50589000  1
  Ni  Ni10  1  0.98978000  0.26347000  0.25589000  1
  Ni  Ni11  1  0.98978000  0.73653000  0.24411000  1
  H  H12  1  0.00250000  0.00990000  0.32250000  1
  H  H13  1  0.00250000  0.99010000  0.17750000  1
  H  H14  1  0.00990000  0.00250000  0.42750000  1
  H  H15  1  0.00990000  0.99750000  0.07250000  1
  H  H16  1  0.02800000  0.18580000  0.31860000  1
  H  H17  1  0.02800000  0.81420000  0.18140000  1
  H  H18  1  0.02840000  0.13800000  0.07800000  1
  H  H19  1  0.02840000  0.86200000  0.42200000  1
  H  H20  1  0.05020000  0.10500000  0.21300000  1
  H  H21  1  0.05020000  0.89500000  0.28700000  1
  H  H22  1  0.05600000  0.27230000  0.84070000  1
  H  H23  1  0.05600000  0.72770000  0.65930000  1
  H  H24  1  0.06400000  0.22390000  0.95190000  1
  H  H25  1  0.06400000  0.77610000  0.54810000  1
  H  H26  1  0.10500000  0.05020000  0.53700000  1
  H  H27  1  0.10500000  0.94980000  0.96300000  1
  H  H28  1  0.13800000  0.02840000  0.67200000  1
  H  H29  1  0.13800000  0.97160000  0.82800000  1
  H  H30  1  0.13820000  0.39870000  0.74340000  1
  H  H31  1  0.13820000  0.60130000  0.75660000  1
  H  H32  1  0.13950000  0.17970000  0.14940000  1
  H  H33  1  0.13950000  0.82030000  0.35060000  1
  H  H34  1  0.14100000  0.33580000  0.89000000  1
  H  H35  1  0.14100000  0.66420000  0.61000000  1
  H  H36  1  0.17550000  0.17670000  0.76250000  1
  H  H37  1  0.17550000  0.82330000  0.73750000  1
  H  H38  1  0.17670000  0.17550000  0.98750000  1
  H  H39  1  0.17670000  0.82450000  0.51250000  1
  H  H40  1  0.17970000  0.13950000  0.60060000  1
  H  H41  1  0.17970000  0.86050000  0.89940000  1
  H  H42  1  0.18580000  0.02800000  0.43140000  1
  H  H43  1  0.18580000  0.97200000  0.06860000  1
  H  H44  1  0.21800000  0.39400000  0.45630000  1
  H  H45  1  0.21800000  0.60600000  0.04370000  1
  H  H46  1  0.22390000  0.06400000  0.79810000  1
  H  H47  1  0.22390000  0.93600000  0.70190000  1
  H  H48  1  0.22500000  0.34110000  0.67240000  1
  H  H49  1  0.22500000  0.65890000  0.82760000  1
  H  H50  1  0.22650000  0.46890000  0.78810000  1
  H  H51  1  0.22650000  0.53110000  0.71190000  1
  H  H52  1  0.22890000  0.43920000  0.86420000  1
  H  H53  1  0.22890000  0.56080000  0.63580000  1
  H  H54  1  0.26200000  0.38760000  0.16700000  1
  H  H55  1  0.26200000  0.61240000  0.33300000  1
  H  H56  1  0.26400000  0.41220000  0.25610000  1
  H  H57  1  0.26400000  0.58780000  0.24390000  1
  H  H58  1  0.27230000  0.05600000  0.90930000  1
  H  H59  1  0.27230000  0.94400000  0.59070000  1
  H  H60  1  0.27390000  0.28880000  0.50040000  1
  H  H61  1  0.27390000  0.71120000  0.99960000  1
  H  H62  1  0.28880000  0.27390000  0.24960000  1
  H  H63  1  0.28880000  0.72610000  0.25040000  1
  H  H64  1  0.29700000  0.45300000  0.40340000  1
  H  H65  1  0.29700000  0.54700000  0.09660000  1
  H  H66  1  0.33580000  0.14100000  0.86000000  1
  H  H67  1  0.33580000  0.85900000  0.64000000  1
  H  H68  1  0.34110000  0.22500000  0.07760000  1
  H  H69  1  0.34110000  0.77500000  0.42240000  1
  H  H70  1  0.34130000  0.49130000  0.30290000  1
  H  H71  1  0.34130000  0.50870000  0.19710000  1
  H  H72  1  0.38760000  0.26200000  0.58300000  1
  H  H73  1  0.38760000  0.73800000  0.91700000  1
  H  H74  1  0.39400000  0.21800000  0.29370000  1
  H  H75  1  0.39400000  0.78200000  0.20630000  1
  H  H76  1  0.39870000  0.13820000  0.00660000  1
  H  H77  1  0.39870000  0.86180000  0.49340000  1
  H  H78  1  0.41220000  0.26400000  0.49390000  1
  H  H79  1  0.41220000  0.73600000  0.00610000  1
  H  H80  1  0.43920000  0.22890000  0.88580000  1
  H  H81  1  0.43920000  0.77110000  0.61420000  1
  H  H82  1  0.45300000  0.29700000  0.34660000  1
  H  H83  1  0.45300000  0.70300000  0.15340000  1
  H  H84  1  0.46890000  0.22650000  0.96190000  1
  H  H85  1  0.46890000  0.77350000  0.53810000  1
  H  H86  1  0.49130000  0.34130000  0.44710000  1
  H  H87  1  0.49130000  0.65870000  0.05290000  1
  H  H88  1  0.50870000  0.34130000  0.55290000  1
  H  H89  1  0.50870000  0.65870000  0.94710000  1
  H  H90  1  0.53110000  0.22650000  0.03810000  1
  H  H91  1  0.53110000  0.77350000  0.46190000  1
  H  H92  1  0.54700000  0.29700000  0.65340000  1
  H  H93  1  0.54700000  0.70300000  0.84660000  1
  H  H94  1  0.56080000  0.22890000  0.11420000  1
  H  H95  1  0.56080000  0.77110000  0.38580000  1
  H  H96  1  0.58780000  0.26400000  0.50610000  1
  H  H97  1  0.58780000  0.73600000  0.99390000  1
  H  H98  1  0.60130000  0.13820000  0.99340000  1
  H  H99  1  0.60130000  0.86180000  0.50660000  1
  H  H100  1  0.60600000  0.21800000  0.70630000  1
  H  H101  1  0.60600000  0.78200000  0.79370000  1
  H  H102  1  0.61240000  0.26200000  0.41700000  1
  H  H103  1  0.61240000  0.73800000  0.08300000  1
  H  H104  1  0.65870000  0.49130000  0.69710000  1
  H  H105  1  0.65870000  0.50870000  0.80290000  1
  H  H106  1  0.65890000  0.22500000  0.92240000  1
  H  H107  1  0.65890000  0.77500000  0.57760000  1
  H  H108  1  0.66420000  0.14100000  0.14000000  1
  H  H109  1  0.66420000  0.85900000  0.36000000  1
  H  H110  1  0.70300000  0.45300000  0.59660000  1
  H  H111  1  0.70300000  0.54700000  0.90340000  1
  H  H112  1  0.71120000  0.27390000  0.75040000  1
  H  H113  1  0.71120000  0.72610000  0.74960000  1
  H  H114  1  0.72610000  0.28880000  0.49960000  1
  H  H115  1  0.72610000  0.71120000  0.00040000  1
  H  H116  1  0.72770000  0.05600000  0.09070000  1
  H  H117  1  0.72770000  0.94400000  0.40930000  1
  H  H118  1  0.73600000  0.41220000  0.74390000  1
  H  H119  1  0.73600000  0.58780000  0.75610000  1
  H  H120  1  0.73800000  0.38760000  0.83300000  1
  H  H121  1  0.73800000  0.61240000  0.66700000  1
  H  H122  1  0.77110000  0.43920000  0.13580000  1
  H  H123  1  0.77110000  0.56080000  0.36420000  1
  H  H124  1  0.77350000  0.46890000  0.21190000  1
  H  H125  1  0.77350000  0.53110000  0.28810000  1
  H  H126  1  0.77500000  0.34110000  0.32760000  1
  H  H127  1  0.77500000  0.65890000  0.17240000  1
  H  H128  1  0.77610000  0.06400000  0.20190000  1
  H  H129  1  0.77610000  0.93600000  0.29810000  1
  H  H130  1  0.78200000  0.39400000  0.54370000  1
  H  H131  1  0.78200000  0.60600000  0.95630000  1
  H  H132  1  0.81420000  0.02800000  0.56860000  1
  H  H133  1  0.81420000  0.97200000  0.93140000  1
  H  H134  1  0.82030000  0.13950000  0.39940000  1
  H  H135  1  0.82030000  0.86050000  0.10060000  1
  H  H136  1  0.82330000  0.17550000  0.01250000  1
  H  H137  1  0.82330000  0.82450000  0.48750000  1
  H  H138  1  0.82450000  0.17670000  0.23750000  1
  H  H139  1  0.82450000  0.82330000  0.26250000  1
  H  H140  1  0.85900000  0.33580000  0.11000000  1
  H  H141  1  0.85900000  0.66420000  0.39000000  1
  H  H142  1  0.86050000  0.17970000  0.85060000  1
  H  H143  1  0.86050000  0.82030000  0.64940000  1
  H  H144  1  0.86180000  0.39870000  0.25660000  1
  H  H145  1  0.86180000  0.60130000  0.24340000  1
  H  H146  1  0.86200000  0.02840000  0.32800000  1
  H  H147  1  0.86200000  0.97160000  0.17200000  1
  H  H148  1  0.89500000  0.05020000  0.46300000  1
  H  H149  1  0.89500000  0.94980000  0.03700000  1
  H  H150  1  0.93600000  0.22390000  0.04810000  1
  H  H151  1  0.93600000  0.77610000  0.45190000  1
  H  H152  1  0.94400000  0.27230000  0.15930000  1
  H  H153  1  0.94400000  0.72770000  0.34070000  1
  H  H154  1  0.94980000  0.10500000  0.78700000  1
  H  H155  1  0.94980000  0.89500000  0.71300000  1
  H  H156  1  0.97160000  0.13800000  0.92200000  1
  H  H157  1  0.97160000  0.86200000  0.57800000  1
  H  H158  1  0.97200000  0.18580000  0.68140000  1
  H  H159  1  0.97200000  0.81420000  0.81860000  1
  H  H160  1  0.99010000  0.00250000  0.57250000  1
  H  H161  1  0.99010000  0.99750000  0.92750000  1
  H  H162  1  0.99750000  0.00990000  0.67750000  1
  H  H163  1  0.99750000  0.99010000  0.82250000  1
  C  C164  1  0.00620000  0.09710000  0.78890000  1
  C  C165  1  0.00620000  0.90290000  0.71110000  1
  C  C166  1  0.01740000  0.11700000  0.93650000  1
  C  C167  1  0.01740000  0.88300000  0.56350000  1
  C  C168  1  0.02810000  0.03380000  0.93950000  1
  C  C169  1  0.02810000  0.96620000  0.56050000  1
  C  C170  1  0.03380000  0.02810000  0.81050000  1
  C  C171  1  0.03380000  0.97190000  0.68950000  1
  C  C172  1  0.07200000  0.16760000  0.95410000  1
  C  C173  1  0.07200000  0.83240000  0.54590000  1
  C  C174  1  0.09080000  0.31280000  0.83000000  1
  C  C175  1  0.09080000  0.68720000  0.67000000  1
  C  C176  1  0.09710000  0.00620000  0.96110000  1
  C  C177  1  0.09710000  0.99380000  0.53890000  1
  C  C178  1  0.10780000  0.22720000  0.66300000  1
  C  C179  1  0.10780000  0.77280000  0.83700000  1
  C  C180  1  0.11700000  0.01740000  0.81350000  1
  C  C181  1  0.11700000  0.98260000  0.68650000  1
  C  C182  1  0.13140000  0.31260000  0.19910000  1
  C  C183  1  0.13140000  0.68740000  0.30090000  1
  C  C184  1  0.13640000  0.21830000  0.31630000  1
  C  C185  1  0.13640000  0.78170000  0.18370000  1
  C  C186  1  0.13840000  0.38630000  0.77360000  1
  C  C187  1  0.13840000  0.61370000  0.72640000  1
  C  C188  1  0.13860000  0.13950000  0.77460000  1
  C  C189  1  0.13860000  0.86050000  0.72540000  1
  C  C190  1  0.13950000  0.13860000  0.97540000  1
  C  C191  1  0.13950000  0.86140000  0.52460000  1
  C  C192  1  0.14170000  0.35070000  0.86010000  1
  C  C193  1  0.14170000  0.64930000  0.63990000  1
  C  C194  1  0.16150000  0.17520000  0.39950000  1
  C  C195  1  0.16150000  0.82480000  0.10050000  1
  C  C196  1  0.16760000  0.07200000  0.79590000  1
  C  C197  1  0.16760000  0.92800000  0.70410000  1
  C  C198  1  0.17520000  0.16150000  0.35050000  1
  C  C199  1  0.17520000  0.83850000  0.14950000  1
  C  C200  1  0.18270000  0.21420000  0.14180000  1
  C  C201  1  0.18270000  0.78580000  0.35820000  1
  C  C202  1  0.18990000  0.23720000  0.64010000  1
  C  C203  1  0.18990000  0.76280000  0.85990000  1
  C  C204  1  0.19020000  0.28880000  0.16300000  1
  C  C205  1  0.19020000  0.71120000  0.33700000  1
  C  C206  1  0.19220000  0.42910000  0.80010000  1
  C  C207  1  0.19220000  0.57090000  0.69990000  1
  C  C208  1  0.19400000  0.41140000  0.84490000  1
  C  C209  1  0.19400000  0.58860000  0.65510000  1
  C  C210  1  0.21420000  0.18270000  0.60820000  1
  C  C211  1  0.21420000  0.81730000  0.89180000  1
  C  C212  1  0.21830000  0.13640000  0.43370000  1
  C  C213  1  0.21830000  0.86360000  0.06630000  1
  C  C214  1  0.22720000  0.10780000  0.08700000  1
  C  C215  1  0.22720000  0.89220000  0.41300000  1
  C  C216  1  0.23720000  0.18990000  0.10990000  1
  C  C217  1  0.23720000  0.81010000  0.39010000  1
  C  C218  1  0.24130000  0.30360000  0.65080000  1
  C  C219  1  0.24130000  0.69640000  0.84920000  1
  C  C220  1  0.25580000  0.33780000  0.15230000  1
  C  C221  1  0.25580000  0.66220000  0.34770000  1
  C  C222  1  0.27300000  0.38000000  0.45390000  1
  C  C223  1  0.27300000  0.62000000  0.04610000  1
  C  C224  1  0.28880000  0.19020000  0.58700000  1
  C  C225  1  0.28880000  0.80980000  0.91300000  1
  C  C226  1  0.30360000  0.24130000  0.09920000  1
  C  C227  1  0.30360000  0.75870000  0.40080000  1
  C  C228  1  0.30520000  0.38790000  0.27300000  1
  C  C229  1  0.30520000  0.61210000  0.22700000  1
  C  C230  1  0.30620000  0.31880000  0.48080000  1
  C  C231  1  0.30620000  0.68120000  0.01920000  1
  C  C232  1  0.31260000  0.13140000  0.55090000  1
  C  C233  1  0.31260000  0.86860000  0.94910000  1
  C  C234  1  0.31280000  0.09080000  0.92000000  1
  C  C235  1  0.31280000  0.90920000  0.58000000  1
  C  C236  1  0.31340000  0.31560000  0.12030000  1
  C  C237  1  0.31340000  0.68440000  0.37970000  1
  C  C238  1  0.31560000  0.31340000  0.62970000  1
  C  C239  1  0.31560000  0.68660000  0.87030000  1
  C  C240  1  0.31880000  0.30620000  0.26920000  1
  C  C241  1  0.31880000  0.69380000  0.23080000  1
  C  C242  1  0.32180000  0.41870000  0.42420000  1
  C  C243  1  0.32180000  0.58130000  0.07580000  1
  C  C244  1  0.33780000  0.25580000  0.59770000  1
  C  C245  1  0.33780000  0.74420000  0.90230000  1
  C  C246  1  0.35070000  0.14170000  0.88990000  1
  C  C247  1  0.35070000  0.85830000  0.61010000  1
  C  C248  1  0.35140000  0.43530000  0.30150000  1
  C  C249  1  0.35140000  0.56470000  0.19850000  1
  C  C250  1  0.36740000  0.38440000  0.64130000  1
  C  C251  1  0.36740000  0.61560000  0.85870000  1
  C  C252  1  0.38000000  0.27300000  0.29610000  1
  C  C253  1  0.38000000  0.72700000  0.20390000  1
  C  C254  1  0.38440000  0.36740000  0.10870000  1
  C  C255  1  0.38440000  0.63260000  0.39130000  1
  C  C256  1  0.38630000  0.13840000  0.97640000  1
  C  C257  1  0.38630000  0.86160000  0.52360000  1
  C  C258  1  0.38790000  0.30520000  0.47700000  1
  C  C259  1  0.38790000  0.69480000  0.02300000  1
  C  C260  1  0.41140000  0.19400000  0.90510000  1
  C  C261  1  0.41140000  0.80600000  0.59490000  1
  C  C262  1  0.41870000  0.32180000  0.32580000  1
  C  C263  1  0.41870000  0.67820000  0.17420000  1
  C  C264  1  0.42910000  0.19220000  0.94990000  1
  C  C265  1  0.42910000  0.80780000  0.55010000  1
  C  C266  1  0.43530000  0.35140000  0.44850000  1
  C  C267  1  0.43530000  0.64860000  0.05150000  1
  C  C268  1  0.56470000  0.35140000  0.55150000  1
  C  C269  1  0.56470000  0.64860000  0.94850000  1
  C  C270  1  0.57090000  0.19220000  0.05010000  1
  C  C271  1  0.57090000  0.80780000  0.44990000  1
  C  C272  1  0.58130000  0.32180000  0.67420000  1
  C  C273  1  0.58130000  0.67820000  0.82580000  1
  C  C274  1  0.58860000  0.19400000  0.09490000  1
  C  C275  1  0.58860000  0.80600000  0.40510000  1
  C  C276  1  0.61210000  0.30520000  0.52300000  1
  C  C277  1  0.61210000  0.69480000  0.97700000  1
  C  C278  1  0.61370000  0.13840000  0.02360000  1
  C  C279  1  0.61370000  0.86160000  0.47640000  1
  C  C280  1  0.61560000  0.36740000  0.89130000  1
  C  C281  1  0.61560000  0.63260000  0.60870000  1
  C  C282  1  0.62000000  0.27300000  0.70390000  1
  C  C283  1  0.62000000  0.72700000  0.79610000  1
  C  C284  1  0.63260000  0.38440000  0.35870000  1
  C  C285  1  0.63260000  0.61560000  0.14130000  1
  C  C286  1  0.64860000  0.43530000  0.69850000  1
  C  C287  1  0.64860000  0.56470000  0.80150000  1
  C  C288  1  0.64930000  0.14170000  0.11010000  1
  C  C289  1  0.64930000  0.85830000  0.38990000  1
  C  C290  1  0.66220000  0.25580000  0.40230000  1
  C  C291  1  0.66220000  0.74420000  0.09770000  1
  C  C292  1  0.67820000  0.41870000  0.57580000  1
  C  C293  1  0.67820000  0.58130000  0.92420000  1
  C  C294  1  0.68120000  0.30620000  0.73080000  1
  C  C295  1  0.68120000  0.69380000  0.76920000  1
  C  C296  1  0.68440000  0.31340000  0.37030000  1
  C  C297  1  0.68440000  0.68660000  0.12970000  1
  C  C298  1  0.68660000  0.31560000  0.87970000  1
  C  C299  1  0.68660000  0.68440000  0.62030000  1
  C  C300  1  0.68720000  0.09080000  0.08000000  1
  C  C301  1  0.68720000  0.90920000  0.42000000  1
  C  C302  1  0.68740000  0.13140000  0.44910000  1
  C  C303  1  0.68740000  0.86860000  0.05090000  1
  C  C304  1  0.69380000  0.31880000  0.51920000  1
  C  C305  1  0.69380000  0.68120000  0.98080000  1
  C  C306  1  0.69480000  0.38790000  0.72700000  1
  C  C307  1  0.69480000  0.61210000  0.77300000  1
  C  C308  1  0.69640000  0.24130000  0.90080000  1
  C  C309  1  0.69640000  0.75870000  0.59920000  1
  C  C310  1  0.71120000  0.19020000  0.41300000  1
  C  C311  1  0.71120000  0.80980000  0.08700000  1
  C  C312  1  0.72700000  0.38000000  0.54610000  1
  C  C313  1  0.72700000  0.62000000  0.95390000  1
  C  C314  1  0.74420000  0.33780000  0.84770000  1
  C  C315  1  0.74420000  0.66220000  0.65230000  1
  C  C316  1  0.75870000  0.30360000  0.34920000  1
  C  C317  1  0.75870000  0.69640000  0.15080000  1
  C  C318  1  0.76280000  0.18990000  0.89010000  1
  C  C319  1  0.76280000  0.81010000  0.60990000  1
  C  C320  1  0.77280000  0.10780000  0.91300000  1
  C  C321  1  0.77280000  0.89220000  0.58700000  1
  C  C322  1  0.78170000  0.13640000  0.56630000  1
  C  C323  1  0.78170000  0.86360000  0.93370000  1
  C  C324  1  0.78580000  0.18270000  0.39180000  1
  C  C325  1  0.78580000  0.81730000  0.10820000  1
  C  C326  1  0.80600000  0.41140000  0.15510000  1
  C  C327  1  0.80600000  0.58860000  0.34490000  1
  C  C328  1  0.80780000  0.42910000  0.19990000  1
  C  C329  1  0.80780000  0.57090000  0.30010000  1
  C  C330  1  0.80980000  0.28880000  0.83700000  1
  C  C331  1  0.80980000  0.71120000  0.66300000  1
  C  C332  1  0.81010000  0.23720000  0.35990000  1
  C  C333  1  0.81010000  0.76280000  0.14010000  1
  C  C334  1  0.81730000  0.21420000  0.85820000  1
  C  C335  1  0.81730000  0.78580000  0.64180000  1
  C  C336  1  0.82480000  0.16150000  0.64950000  1
  C  C337  1  0.82480000  0.83850000  0.85050000  1
  C  C338  1  0.83240000  0.07200000  0.20410000  1
  C  C339  1  0.83240000  0.92800000  0.29590000  1
  C  C340  1  0.83850000  0.17520000  0.60050000  1
  C  C341  1  0.83850000  0.82480000  0.89950000  1
  C  C342  1  0.85830000  0.35070000  0.13990000  1
  C  C343  1  0.85830000  0.64930000  0.36010000  1
  C  C344  1  0.86050000  0.13860000  0.02460000  1
  C  C345  1  0.86050000  0.86140000  0.47540000  1
  C  C346  1  0.86140000  0.13950000  0.22540000  1
  C  C347  1  0.86140000  0.86050000  0.27460000  1
  C  C348  1  0.86160000  0.38630000  0.22640000  1
  C  C349  1  0.86160000  0.61370000  0.27360000  1
  C  C350  1  0.86360000  0.21830000  0.68370000  1
  C  C351  1  0.86360000  0.78170000  0.81630000  1
  C  C352  1  0.86860000  0.31260000  0.80090000  1
  C  C353  1  0.86860000  0.68740000  0.69910000  1
  C  C354  1  0.88300000  0.01740000  0.18650000  1
  C  C355  1  0.88300000  0.98260000  0.31350000  1
  C  C356  1  0.89220000  0.22720000  0.33700000  1
  C  C357  1  0.89220000  0.77280000  0.16300000  1
  C  C358  1  0.90290000  0.00620000  0.03890000  1
  C  C359  1  0.90290000  0.99380000  0.46110000  1
  C  C360  1  0.90920000  0.31280000  0.17000000  1
  C  C361  1  0.90920000  0.68720000  0.33000000  1
  C  C362  1  0.92800000  0.16760000  0.04590000  1
  C  C363  1  0.92800000  0.83240000  0.45410000  1
  C  C364  1  0.96620000  0.02810000  0.18950000  1
  C  C365  1  0.96620000  0.97190000  0.31050000  1
  C  C366  1  0.97190000  0.03380000  0.06050000  1
  C  C367  1  0.97190000  0.96620000  0.43950000  1
  C  C368  1  0.98260000  0.11700000  0.06350000  1
  C  C369  1  0.98260000  0.88300000  0.43650000  1
  C  C370  1  0.99380000  0.09710000  0.21110000  1
  C  C371  1  0.99380000  0.90290000  0.28890000  1
  N  N372  1  0.05540000  0.15410000  0.77040000  1
  N  N373  1  0.05540000  0.84590000  0.72960000  1
  N  N374  1  0.08730000  0.32930000  0.78730000  1
  N  N375  1  0.08730000  0.67070000  0.71270000  1
  N  N376  1  0.15410000  0.05540000  0.97960000  1
  N  N377  1  0.15410000  0.94460000  0.52040000  1
  N  N378  1  0.32930000  0.08730000  0.96270000  1
  N  N379  1  0.32930000  0.91270000  0.53730000  1
  N  N380  1  0.40320000  0.41090000  0.42270000  1
  N  N381  1  0.40320000  0.58910000  0.07730000  1
  N  N382  1  0.41090000  0.40320000  0.32730000  1
  N  N383  1  0.41090000  0.59680000  0.17270000  1
  N  N384  1  0.58910000  0.40320000  0.67270000  1
  N  N385  1  0.58910000  0.59680000  0.82730000  1
  N  N386  1  0.59680000  0.41090000  0.57730000  1
  N  N387  1  0.59680000  0.58910000  0.92270000  1
  N  N388  1  0.67070000  0.08730000  0.03730000  1
  N  N389  1  0.67070000  0.91270000  0.46270000  1
  N  N390  1  0.84590000  0.05540000  0.02040000  1
  N  N391  1  0.84590000  0.94460000  0.47960000  1
  N  N392  1  0.91270000  0.32930000  0.21270000  1
  N  N393  1  0.91270000  0.67070000  0.28730000  1
  N  N394  1  0.94460000  0.15410000  0.22960000  1
  N  N395  1  0.94460000  0.84590000  0.27040000  1
  O  O396  1  0.05950000  0.17600000  0.64860000  1
  O  O397  1  0.05950000  0.82400000  0.85140000  1
  O  O398  1  0.06220000  0.18890000  0.29870000  1
  O  O399  1  0.06220000  0.81110000  0.20130000  1
  O  O400  1  0.07920000  0.26040000  0.21140000  1
  O  O401  1  0.07920000  0.73960000  0.28860000  1
  O  O402  1  0.09940000  0.26880000  0.69800000  1
  O  O403  1  0.09940000  0.73120000  0.80200000  1
  O  O404  1  0.13770000  0.38480000  0.21620000  1
  O  O405  1  0.13770000  0.61520000  0.28380000  1
  O  O406  1  0.17600000  0.05950000  0.10140000  1
  O  O407  1  0.17600000  0.94050000  0.39860000  1
  O  O408  1  0.18890000  0.06220000  0.45130000  1
  O  O409  1  0.18890000  0.93780000  0.04870000  1
  O  O410  1  0.26040000  0.07920000  0.53860000  1
  O  O411  1  0.26040000  0.92080000  0.96140000  1
  O  O412  1  0.26880000  0.09940000  0.05200000  1
  O  O413  1  0.26880000  0.90060000  0.44800000  1
  O  O414  1  0.34080000  0.43750000  0.66820000  1
  O  O415  1  0.34080000  0.56250000  0.83180000  1
  O  O416  1  0.38480000  0.13770000  0.53380000  1
  O  O417  1  0.38480000  0.86230000  0.96620000  1
  O  O418  1  0.38720000  0.43750000  0.12810000  1
  O  O419  1  0.38720000  0.56250000  0.37190000  1
  O  O420  1  0.43750000  0.34080000  0.08180000  1
  O  O421  1  0.43750000  0.38720000  0.62190000  1
  O  O422  1  0.43750000  0.61280000  0.87810000  1
  O  O423  1  0.43750000  0.65920000  0.41820000  1
  O  O424  1  0.56250000  0.34080000  0.91820000  1
  O  O425  1  0.56250000  0.38720000  0.37810000  1
  O  O426  1  0.56250000  0.61280000  0.12190000  1
  O  O427  1  0.56250000  0.65920000  0.58180000  1
  O  O428  1  0.61280000  0.43750000  0.87190000  1
  O  O429  1  0.61280000  0.56250000  0.62810000  1
  O  O430  1  0.61520000  0.13770000  0.46620000  1
  O  O431  1  0.61520000  0.86230000  0.03380000  1
  O  O432  1  0.65920000  0.43750000  0.33180000  1
  O  O433  1  0.65920000  0.56250000  0.16820000  1
  O  O434  1  0.73120000  0.09940000  0.94800000  1
  O  O435  1  0.73120000  0.90060000  0.55200000  1
  O  O436  1  0.73960000  0.07920000  0.46140000  1
  O  O437  1  0.73960000  0.92080000  0.03860000  1
  O  O438  1  0.81110000  0.06220000  0.54870000  1
  O  O439  1  0.81110000  0.93780000  0.95130000  1
  O  O440  1  0.82400000  0.05950000  0.89860000  1
  O  O441  1  0.82400000  0.94050000  0.60140000  1
  O  O442  1  0.86230000  0.38480000  0.78380000  1
  O  O443  1  0.86230000  0.61520000  0.71620000  1
  O  O444  1  0.90060000  0.26880000  0.30200000  1
  O  O445  1  0.90060000  0.73120000  0.19800000  1
  O  O446  1  0.92080000  0.26040000  0.78860000  1
  O  O447  1  0.92080000  0.73960000  0.71140000  1
  O  O448  1  0.93780000  0.18890000  0.70130000  1
  O  O449  1  0.93780000  0.81110000  0.79870000  1
  O  O450  1  0.94050000  0.17600000  0.35140000  1
  O  O451  1  0.94050000  0.82400000  0.14860000  1
