# generated using pymatgen
data_YC3SeO10
_symmetry_space_group_name_H-M   'P 1'
_cell_length_a   8.77490000
_cell_length_b   9.50770000
_cell_length_c   15.88030000
_cell_angle_alpha   90.00000000
_cell_angle_beta   90.00000000
_cell_angle_gamma   99.85500000
_symmetry_Int_Tables_number   1
_chemical_formula_structural   YC3SeO10
_chemical_formula_sum   'Y4 C12 Se4 O40'
_cell_volume   1305.32955496
_cell_formula_units_Z   4
loop_
 _symmetry_equiv_pos_site_id
 _symmetry_equiv_pos_as_xyz
  1  'x, y, z'
loop_
 _atom_site_type_symbol
 _atom_site_label
 _atom_site_symmetry_multiplicity
 _atom_site_fract_x
 _atom_site_fract_y
 _atom_site_fract_z
 _atom_site_occupancy
  Y  Y0  1  0.97123000  0.47481000  0.80444000  1
  Y  Y1  1  0.52877000  0.02519000  0.30444000  1
  Y  Y2  1  0.47123000  0.97481000  0.69556000  1
  Y  Y3  1  0.02877000  0.52519000  0.19556000  1
  C  C4  1  0.93180000  0.54110000  0.00120000  1
  C  C5  1  0.79240000  0.29850000  0.29570000  1
  C  C6  1  0.76960000  0.25000000  0.20350000  1
  C  C7  1  0.73040000  0.25000000  0.70350000  1
  C  C8  1  0.70760000  0.20150000  0.79570000  1
  C  C9  1  0.56820000  0.95890000  0.50120000  1
  C  C10  1  0.43180000  0.04110000  0.49880000  1
  C  C11  1  0.29240000  0.79850000  0.20430000  1
  C  C12  1  0.26960000  0.75000000  0.29650000  1
  C  C13  1  0.23040000  0.75000000  0.79650000  1
  C  C14  1  0.20760000  0.70150000  0.70430000  1
  C  C15  1  0.06820000  0.45890000  0.99880000  1
  Se  Se16  1  0.77814000  0.79099000  0.77879000  1
  Se  Se17  1  0.72186000  0.70901000  0.27879000  1
  Se  Se18  1  0.27814000  0.29099000  0.72121000  1
  Se  Se19  1  0.22186000  0.20901000  0.22121000  1
  O  O20  1  0.92440000  0.90180000  0.74090000  1
  O  O21  1  0.90430000  0.59740000  0.06903000  1
  O  O22  1  0.88760000  0.40820000  0.31045000  1
  O  O23  1  0.88210000  0.69660000  0.22826000  1
  O  O24  1  0.85990000  0.54450000  0.93284000  1
  O  O25  1  0.85330000  0.32600000  0.15041000  1
  O  O26  1  0.82920000  0.35830000  0.68921000  1
  O  O27  1  0.80310000  0.62470000  0.76640000  1
  O  O28  1  0.78950000  0.27820000  0.84969000  1
  O  O29  1  0.75990000  0.82650000  0.87790000  1
  O  O30  1  0.74010000  0.67350000  0.37790000  1
  O  O31  1  0.71050000  0.22180000  0.34969000  1
  O  O32  1  0.69690000  0.87530000  0.26640000  1
  O  O33  1  0.67080000  0.14170000  0.18921000  1
  O  O34  1  0.64670000  0.17400000  0.65041000  1
  O  O35  1  0.64010000  0.95550000  0.43284000  1
  O  O36  1  0.61790000  0.80340000  0.72826000  1
  O  O37  1  0.61240000  0.09180000  0.81045000  1
  O  O38  1  0.59570000  0.90260000  0.56903000  1
  O  O39  1  0.57560000  0.59820000  0.24090000  1
  O  O40  1  0.42440000  0.40180000  0.75910000  1
  O  O41  1  0.40430000  0.09740000  0.43097000  1
  O  O42  1  0.38760000  0.90820000  0.18955000  1
  O  O43  1  0.38210000  0.19660000  0.27174000  1
  O  O44  1  0.35990000  0.04450000  0.56716000  1
  O  O45  1  0.35330000  0.82600000  0.34959000  1
  O  O46  1  0.32920000  0.85830000  0.81079000  1
  O  O47  1  0.30310000  0.12470000  0.73360000  1
  O  O48  1  0.28950000  0.77820000  0.65031000  1
  O  O49  1  0.25990000  0.32650000  0.62210000  1
  O  O50  1  0.24010000  0.17350000  0.12210000  1
  O  O51  1  0.21050000  0.72180000  0.15031000  1
  O  O52  1  0.19690000  0.37530000  0.23360000  1
  O  O53  1  0.17080000  0.64170000  0.31079000  1
  O  O54  1  0.14670000  0.67400000  0.84959000  1
  O  O55  1  0.14010000  0.45550000  0.06716000  1
  O  O56  1  0.11790000  0.30340000  0.77174000  1
  O  O57  1  0.11240000  0.59180000  0.68955000  1
  O  O58  1  0.09570000  0.40260000  0.93097000  1
  O  O59  1  0.07560000  0.09820000  0.25910000  1
