# generated using pymatgen
data_CaH8(C2O)8
_symmetry_space_group_name_H-M   'P 1'
_cell_length_a   10.14300000
_cell_length_b   12.70900000
_cell_length_c   16.79500000
_cell_angle_alpha   90.00000000
_cell_angle_beta   107.03600000
_cell_angle_gamma   90.00000000
_symmetry_Int_Tables_number   1
_chemical_formula_structural   CaH8(C2O)8
_chemical_formula_sum   'Ca4 H32 C64 O32'
_cell_volume   2070.00125573
_cell_formula_units_Z   4
loop_
 _symmetry_equiv_pos_site_id
 _symmetry_equiv_pos_as_xyz
  1  'x, y, z'
loop_
 _atom_site_type_symbol
 _atom_site_label
 _atom_site_symmetry_multiplicity
 _atom_site_fract_x
 _atom_site_fract_y
 _atom_site_fract_z
 _atom_site_occupancy
  Ca  Ca0  1  0.06862000  0.73201000  0.78719000  1
  Ca  Ca1  1  0.06862000  0.76799000  0.28719000  1
  Ca  Ca2  1  0.93138000  0.23201000  0.71281000  1
  Ca  Ca3  1  0.93138000  0.26799000  0.21281000  1
  H  H4  1  0.01980000  0.21670000  0.40210000  1
  H  H5  1  0.01980000  0.28330000  0.90210000  1
  H  H6  1  0.19440000  0.56550000  0.96200000  1
  H  H7  1  0.19440000  0.93450000  0.46200000  1
  H  H8  1  0.19620000  0.14150000  0.64170000  1
  H  H9  1  0.19620000  0.35850000  0.14170000  1
  H  H10  1  0.25430000  0.52180000  0.10100000  1
  H  H11  1  0.25430000  0.97820000  0.60100000  1
  H  H12  1  0.26910000  0.17480000  0.28110000  1
  H  H13  1  0.26910000  0.32520000  0.78110000  1
  H  H14  1  0.33360000  0.67270000  0.21440000  1
  H  H15  1  0.33360000  0.82730000  0.71440000  1
  H  H16  1  0.45780000  0.08450000  0.26660000  1
  H  H17  1  0.45780000  0.41550000  0.76660000  1
  H  H18  1  0.49830000  0.06400000  0.84360000  1
  H  H19  1  0.49830000  0.43600000  0.34360000  1
  H  H20  1  0.50170000  0.56400000  0.65640000  1
  H  H21  1  0.50170000  0.93600000  0.15640000  1
  H  H22  1  0.54220000  0.58450000  0.23340000  1
  H  H23  1  0.54220000  0.91550000  0.73340000  1
  H  H24  1  0.66640000  0.17270000  0.28560000  1
  H  H25  1  0.66640000  0.32730000  0.78560000  1
  H  H26  1  0.73090000  0.67480000  0.21890000  1
  H  H27  1  0.73090000  0.82520000  0.71890000  1
  H  H28  1  0.74570000  0.02180000  0.39900000  1
  H  H29  1  0.74570000  0.47820000  0.89900000  1
  H  H30  1  0.80380000  0.64150000  0.85830000  1
  H  H31  1  0.80380000  0.85850000  0.35830000  1
  H  H32  1  0.80560000  0.06550000  0.53800000  1
  H  H33  1  0.80560000  0.43450000  0.03800000  1
  H  H34  1  0.98020000  0.71670000  0.09790000  1
  H  H35  1  0.98020000  0.78330000  0.59790000  1
  C  C36  1  0.05490000  0.03930000  0.32700000  1
  C  C37  1  0.05490000  0.46070000  0.82700000  1
  C  C38  1  0.05680000  0.19920000  0.05260000  1
  C  C39  1  0.05680000  0.30080000  0.55260000  1
  C  C40  1  0.06510000  0.16810000  0.44220000  1
  C  C41  1  0.06510000  0.33190000  0.94220000  1
  C  C42  1  0.09760000  0.07010000  0.41820000  1
  C  C43  1  0.09760000  0.42990000  0.91820000  1
  C  C44  1  0.10030000  0.19480000  0.52680000  1
  C  C45  1  0.10030000  0.30520000  0.02680000  1
  C  C46  1  0.17000000  0.00000000  0.47810000  1
  C  C47  1  0.17000000  0.50000000  0.97810000  1
  C  C48  1  0.17140000  0.12390000  0.58550000  1
  C  C49  1  0.17140000  0.37610000  0.08550000  1
  C  C50  1  0.20630000  0.02610000  0.56120000  1
  C  C51  1  0.20630000  0.47390000  0.06120000  1
  C  C52  1  0.24680000  0.12910000  0.83410000  1
  C  C53  1  0.24680000  0.37090000  0.33410000  1
  C  C54  1  0.26510000  0.62890000  0.67240000  1
  C  C55  1  0.26510000  0.87110000  0.17240000  1
  C  C56  1  0.35370000  0.20870000  0.29160000  1
  C  C57  1  0.35370000  0.29130000  0.79160000  1
  C  C58  1  0.36650000  0.18670000  0.81760000  1
  C  C59  1  0.36650000  0.31330000  0.31760000  1
  C  C60  1  0.39680000  0.68770000  0.68440000  1
  C  C61  1  0.39680000  0.81230000  0.18440000  1
  C  C62  1  0.40910000  0.70830000  0.20690000  1
  C  C63  1  0.40910000  0.79170000  0.70690000  1
  C  C64  1  0.46540000  0.15520000  0.28130000  1
  C  C65  1  0.46540000  0.34480000  0.78130000  1
  C  C66  1  0.49030000  0.13450000  0.82820000  1
  C  C67  1  0.49030000  0.36550000  0.32820000  1
  C  C68  1  0.50970000  0.63450000  0.67180000  1
  C  C69  1  0.50970000  0.86550000  0.17180000  1
  C  C70  1  0.53460000  0.65520000  0.21870000  1
  C  C71  1  0.53460000  0.84480000  0.71870000  1
  C  C72  1  0.59090000  0.20830000  0.29310000  1
  C  C73  1  0.59090000  0.29170000  0.79310000  1
  C  C74  1  0.60320000  0.18770000  0.81560000  1
  C  C75  1  0.60320000  0.31230000  0.31560000  1
  C  C76  1  0.63350000  0.68670000  0.68240000  1
  C  C77  1  0.63350000  0.81330000  0.18240000  1
  C  C78  1  0.64630000  0.70870000  0.20840000  1
  C  C79  1  0.64630000  0.79130000  0.70840000  1
  C  C80  1  0.73490000  0.12890000  0.82760000  1
  C  C81  1  0.73490000  0.37110000  0.32760000  1
  C  C82  1  0.75320000  0.62910000  0.66590000  1
  C  C83  1  0.75320000  0.87090000  0.16590000  1
  C  C84  1  0.79370000  0.52610000  0.93880000  1
  C  C85  1  0.79370000  0.97390000  0.43880000  1
  C  C86  1  0.82860000  0.62390000  0.91450000  1
  C  C87  1  0.82860000  0.87610000  0.41450000  1
  C  C88  1  0.83000000  0.00000000  0.52190000  1
  C  C89  1  0.83000000  0.50000000  0.02190000  1
  C  C90  1  0.89970000  0.69480000  0.97320000  1
  C  C91  1  0.89970000  0.80520000  0.47320000  1
  C  C92  1  0.90240000  0.57010000  0.08180000  1
  C  C93  1  0.90240000  0.92990000  0.58180000  1
  C  C94  1  0.93490000  0.66810000  0.05780000  1
  C  C95  1  0.93490000  0.83190000  0.55780000  1
  C  C96  1  0.94320000  0.69920000  0.44740000  1
  C  C97  1  0.94320000  0.80080000  0.94740000  1
  C  C98  1  0.94510000  0.53930000  0.17300000  1
  C  C99  1  0.94510000  0.96070000  0.67300000  1
  O  O100  1  0.01180000  0.60350000  0.22690000  1
  O  O101  1  0.01180000  0.89650000  0.72690000  1
  O  O102  1  0.03490000  0.12410000  0.00370000  1
  O  O103  1  0.03490000  0.37590000  0.50370000  1
  O  O104  1  0.04350000  0.19570000  0.12510000  1
  O  O105  1  0.04350000  0.30430000  0.62510000  1
  O  O106  1  0.08770000  0.55070000  0.80920000  1
  O  O107  1  0.08770000  0.94930000  0.30920000  1
  O  O108  1  0.12930000  0.16990000  0.80920000  1
  O  O109  1  0.12930000  0.33010000  0.30920000  1
  O  O110  1  0.16360000  0.67920000  0.68480000  1
  O  O111  1  0.16360000  0.82080000  0.18480000  1
  O  O112  1  0.25510000  0.53510000  0.65060000  1
  O  O113  1  0.25510000  0.96490000  0.15060000  1
  O  O114  1  0.26930000  0.04550000  0.87350000  1
  O  O115  1  0.26930000  0.45450000  0.37350000  1
  O  O116  1  0.73070000  0.54550000  0.62650000  1
  O  O117  1  0.73070000  0.95450000  0.12650000  1
  O  O118  1  0.74490000  0.03510000  0.84940000  1
  O  O119  1  0.74490000  0.46490000  0.34940000  1
  O  O120  1  0.83640000  0.17920000  0.81520000  1
  O  O121  1  0.83640000  0.32080000  0.31520000  1
  O  O122  1  0.87070000  0.66990000  0.69080000  1
  O  O123  1  0.87070000  0.83010000  0.19080000  1
  O  O124  1  0.91230000  0.05070000  0.69080000  1
  O  O125  1  0.91230000  0.44930000  0.19080000  1
  O  O126  1  0.95650000  0.69570000  0.37490000  1
  O  O127  1  0.95650000  0.80430000  0.87490000  1
  O  O128  1  0.96510000  0.62410000  0.49630000  1
  O  O129  1  0.96510000  0.87590000  0.99630000  1
  O  O130  1  0.98820000  0.10350000  0.27310000  1
  O  O131  1  0.98820000  0.39650000  0.77310000  1
