# generated using pymatgen
data_EuH15C24NO8
_symmetry_space_group_name_H-M   'P 1'
_cell_length_a   10.51500000
_cell_length_b   15.85400000
_cell_length_c   20.94700000
_cell_angle_alpha   107.58700000
_cell_angle_beta   90.00000000
_cell_angle_gamma   90.00000000
_symmetry_Int_Tables_number   1
_chemical_formula_structural   EuH15C24NO8
_chemical_formula_sum   'Eu4 H60 C96 N4 O32'
_cell_volume   3328.74855722
_cell_formula_units_Z   4
loop_
 _symmetry_equiv_pos_site_id
 _symmetry_equiv_pos_as_xyz
  1  'x, y, z'
loop_
 _atom_site_type_symbol
 _atom_site_label
 _atom_site_symmetry_multiplicity
 _atom_site_fract_x
 _atom_site_fract_y
 _atom_site_fract_z
 _atom_site_occupancy
  Eu  Eu0  1  0.92134000  0.60089000  0.45423000  1
  Eu  Eu1  1  0.07866000  0.60089000  0.95423000  1
  Eu  Eu2  1  0.92134000  0.39911000  0.04577000  1
  Eu  Eu3  1  0.07866000  0.39911000  0.54577000  1
  H  H4  1  0.56750000  0.99250000  0.55980000  1
  H  H5  1  0.43250000  0.99250000  0.05980000  1
  H  H6  1  0.92750000  0.94880000  0.67110000  1
  H  H7  1  0.07250000  0.94880000  0.17110000  1
  H  H8  1  0.81140000  0.92190000  0.78930000  1
  H  H9  1  0.18860000  0.92190000  0.28930000  1
  H  H10  1  0.54740000  0.90050000  0.73230000  1
  H  H11  1  0.45260000  0.90050000  0.23230000  1
  H  H12  1  0.51230000  0.88070000  0.83710000  1
  H  H13  1  0.48770000  0.88070000  0.33710000  1
  H  H14  1  0.68490000  0.86410000  0.52000000  1
  H  H15  1  0.31510000  0.86410000  0.02000000  1
  H  H16  1  0.58350000  0.86160000  0.12430000  1
  H  H17  1  0.41650000  0.86160000  0.62430000  1
  H  H18  1  0.64190000  0.83890000  0.68130000  1
  H  H19  1  0.35810000  0.83890000  0.18130000  1
  H  H20  1  0.61500000  0.83000000  0.86530000  1
  H  H21  1  0.38500000  0.83000000  0.36530000  1
  H  H22  1  0.74580000  0.77510000  0.06580000  1
  H  H23  1  0.25420000  0.77510000  0.56580000  1
  H  H24  1  0.78650000  0.76520000  0.85010000  1
  H  H25  1  0.21350000  0.76520000  0.35010000  1
  H  H26  1  0.70870000  0.70650000  0.65410000  1
  H  H27  1  0.29130000  0.70650000  0.15410000  1
  H  H28  1  0.52360000  0.68790000  0.22420000  1
  H  H29  1  0.47640000  0.68790000  0.72420000  1
  H  H30  1  0.68550000  0.60030000  0.16540000  1
  H  H31  1  0.31450000  0.60030000  0.66540000  1
  H  H32  1  0.97470000  0.56840000  0.71830000  1
  H  H33  1  0.02530000  0.56840000  0.21830000  1
  H  H34  1  0.97470000  0.43160000  0.78170000  1
  H  H35  1  0.02530000  0.43160000  0.28170000  1
  H  H36  1  0.68550000  0.39970000  0.33460000  1
  H  H37  1  0.31450000  0.39970000  0.83460000  1
  H  H38  1  0.52360000  0.31210000  0.27580000  1
  H  H39  1  0.47640000  0.31210000  0.77580000  1
  H  H40  1  0.70870000  0.29350000  0.84590000  1
  H  H41  1  0.29130000  0.29350000  0.34590000  1
  H  H42  1  0.78650000  0.23480000  0.64990000  1
  H  H43  1  0.21350000  0.23480000  0.14990000  1
  H  H44  1  0.74580000  0.22490000  0.43420000  1
  H  H45  1  0.25420000  0.22490000  0.93420000  1
  H  H46  1  0.61500000  0.17000000  0.63470000  1
  H  H47  1  0.38500000  0.17000000  0.13470000  1
  H  H48  1  0.64190000  0.16110000  0.81870000  1
  H  H49  1  0.35810000  0.16110000  0.31870000  1
  H  H50  1  0.58350000  0.13840000  0.37570000  1
  H  H51  1  0.41650000  0.13840000  0.87570000  1
  H  H52  1  0.68490000  0.13590000  0.98000000  1
  H  H53  1  0.31510000  0.13590000  0.48000000  1
  H  H54  1  0.51230000  0.11930000  0.66290000  1
  H  H55  1  0.48770000  0.11930000  0.16290000  1
  H  H56  1  0.54740000  0.09950000  0.76770000  1
  H  H57  1  0.45260000  0.09950000  0.26770000  1
  H  H58  1  0.81140000  0.07810000  0.71070000  1
  H  H59  1  0.18860000  0.07810000  0.21070000  1
  H  H60  1  0.92750000  0.05120000  0.82890000  1
  H  H61  1  0.07250000  0.05120000  0.32890000  1
  H  H62  1  0.56750000  0.00750000  0.94020000  1
  H  H63  1  0.43250000  0.00750000  0.44020000  1
  C  C64  1  0.64080000  0.98470000  0.58230000  1
  C  C65  1  0.35920000  0.98470000  0.08230000  1
  C  C66  1  0.78520000  0.96460000  0.82820000  1
  C  C67  1  0.21480000  0.96460000  0.32820000  1
  C  C68  1  0.85590000  0.95780000  0.64790000  1
  C  C69  1  0.14410000  0.95780000  0.14790000  1
  C  C70  1  0.67920000  0.94960000  0.86020000  1
  C  C71  1  0.32080000  0.94960000  0.36020000  1
  C  C72  1  0.71140000  0.90770000  0.55830000  1
  C  C73  1  0.28860000  0.90770000  0.05830000  1
  C  C74  1  0.81930000  0.89510000  0.59030000  1
  C  C75  1  0.18070000  0.89510000  0.09030000  1
  C  C76  1  0.60180000  0.86530000  0.83530000  1
  C  C77  1  0.39820000  0.86530000  0.33530000  1
  C  C78  1  0.57660000  0.83990000  0.71420000  1
  C  C79  1  0.42340000  0.83990000  0.21420000  1
  C  C80  1  0.89580000  0.81250000  0.56260000  1
  C  C81  1  0.10420000  0.81250000  0.06260000  1
  C  C82  1  0.60300000  0.80860000  0.13240000  1
  C  C83  1  0.39700000  0.80860000  0.63240000  1
  C  C84  1  0.53390000  0.78280000  0.17950000  1
  C  C85  1  0.46610000  0.78280000  0.67950000  1
  C  C86  1  0.70060000  0.75680000  0.09740000  1
  C  C87  1  0.29940000  0.75680000  0.59740000  1
  C  C88  1  0.72780000  0.74760000  0.75480000  1
  C  C89  1  0.27220000  0.74760000  0.25480000  1
  C  C90  1  0.80050000  0.73130000  0.80600000  1
  C  C91  1  0.19950000  0.73130000  0.30600000  1
  C  C92  1  0.56730000  0.70530000  0.19180000  1
  C  C93  1  0.43270000  0.70530000  0.69180000  1
  C  C94  1  0.75320000  0.69590000  0.68930000  1
  C  C95  1  0.24680000  0.69590000  0.18930000  1
  C  C96  1  0.73200000  0.67810000  0.10880000  1
  C  C97  1  0.26800000  0.67810000  0.60880000  1
  C  C98  1  0.89220000  0.66610000  0.79240000  1
  C  C99  1  0.10780000  0.66610000  0.29240000  1
  C  C100  1  0.96760000  0.65300000  0.84970000  1
  C  C101  1  0.03240000  0.65300000  0.34970000  1
  C  C102  1  0.66500000  0.65280000  0.15670000  1
  C  C103  1  0.33500000  0.65280000  0.65670000  1
  C  C104  1  0.84350000  0.62920000  0.67570000  1
  C  C105  1  0.15650000  0.62920000  0.17570000  1
  C  C106  1  0.83180000  0.61870000  0.06870000  1
  C  C107  1  0.16820000  0.61870000  0.56870000  1
  C  C108  1  0.91430000  0.61330000  0.72730000  1
  C  C109  1  0.08570000  0.61330000  0.22730000  1
  C  C110  1  0.86750000  0.57530000  0.60400000  1
  C  C111  1  0.13250000  0.57530000  0.10400000  1
  C  C112  1  0.86750000  0.42470000  0.89600000  1
  C  C113  1  0.13250000  0.42470000  0.39600000  1
  C  C114  1  0.91430000  0.38670000  0.77270000  1
  C  C115  1  0.08570000  0.38670000  0.27270000  1
  C  C116  1  0.83180000  0.38130000  0.43130000  1
  C  C117  1  0.16820000  0.38130000  0.93130000  1
  C  C118  1  0.84350000  0.37080000  0.82430000  1
  C  C119  1  0.15650000  0.37080000  0.32430000  1
  C  C120  1  0.66500000  0.34720000  0.34330000  1
  C  C121  1  0.33500000  0.34720000  0.84330000  1
  C  C122  1  0.96760000  0.34700000  0.65030000  1
  C  C123  1  0.03240000  0.34700000  0.15030000  1
  C  C124  1  0.89220000  0.33390000  0.70760000  1
  C  C125  1  0.10780000  0.33390000  0.20760000  1
  C  C126  1  0.73200000  0.32190000  0.39120000  1
  C  C127  1  0.26800000  0.32190000  0.89120000  1
  C  C128  1  0.75320000  0.30410000  0.81070000  1
  C  C129  1  0.24680000  0.30410000  0.31070000  1
  C  C130  1  0.56730000  0.29470000  0.30820000  1
  C  C131  1  0.43270000  0.29470000  0.80820000  1
  C  C132  1  0.80050000  0.26870000  0.69400000  1
  C  C133  1  0.19950000  0.26870000  0.19400000  1
  C  C134  1  0.72780000  0.25240000  0.74520000  1
  C  C135  1  0.27220000  0.25240000  0.24520000  1
  C  C136  1  0.70060000  0.24320000  0.40260000  1
  C  C137  1  0.29940000  0.24320000  0.90260000  1
  C  C138  1  0.53390000  0.21720000  0.32050000  1
  C  C139  1  0.46610000  0.21720000  0.82050000  1
  C  C140  1  0.60300000  0.19140000  0.36760000  1
  C  C141  1  0.39700000  0.19140000  0.86760000  1
  C  C142  1  0.89580000  0.18750000  0.93740000  1
  C  C143  1  0.10420000  0.18750000  0.43740000  1
  C  C144  1  0.57660000  0.16010000  0.78580000  1
  C  C145  1  0.42340000  0.16010000  0.28580000  1
  C  C146  1  0.60180000  0.13470000  0.66470000  1
  C  C147  1  0.39820000  0.13470000  0.16470000  1
  C  C148  1  0.81930000  0.10490000  0.90970000  1
  C  C149  1  0.18070000  0.10490000  0.40970000  1
  C  C150  1  0.71140000  0.09230000  0.94170000  1
  C  C151  1  0.28860000  0.09230000  0.44170000  1
  C  C152  1  0.67920000  0.05040000  0.63980000  1
  C  C153  1  0.32080000  0.05040000  0.13980000  1
  C  C154  1  0.85590000  0.04220000  0.85210000  1
  C  C155  1  0.14410000  0.04220000  0.35210000  1
  C  C156  1  0.78520000  0.03540000  0.67180000  1
  C  C157  1  0.21480000  0.03540000  0.17180000  1
  C  C158  1  0.64080000  0.01530000  0.91770000  1
  C  C159  1  0.35920000  0.01530000  0.41770000  1
  N  N160  1  0.63260000  0.81220000  0.76790000  1
  N  N161  1  0.36740000  0.81220000  0.26790000  1
  N  N162  1  0.63260000  0.18780000  0.73210000  1
  N  N163  1  0.36740000  0.18780000  0.23210000  1
  O  O164  1  0.99190000  0.80450000  0.59950000  1
  O  O165  1  0.00810000  0.80450000  0.09950000  1
  O  O166  1  0.86680000  0.75810000  0.51030000  1
  O  O167  1  0.13320000  0.75810000  0.01030000  1
  O  O168  1  0.92950000  0.68860000  0.90836000  1
  O  O169  1  0.07050000  0.68860000  0.40836000  1
  O  O170  1  0.91190000  0.65140000  0.03819000  1
  O  O171  1  0.08810000  0.65140000  0.53819000  1
  O  O172  1  0.83120000  0.60790000  0.55943000  1
  O  O173  1  0.16880000  0.60790000  0.05943000  1
  O  O174  1  0.93400000  0.60560000  0.33851000  1
  O  O175  1  0.06600000  0.60560000  0.83851000  1
  O  O176  1  0.82990000  0.53950000  0.06690000  1
  O  O177  1  0.17010000  0.53950000  0.56690000  1
  O  O178  1  0.92030000  0.50200000  0.59256000  1
  O  O179  1  0.07970000  0.50200000  0.09256000  1
  O  O180  1  0.92030000  0.49800000  0.90744000  1
  O  O181  1  0.07970000  0.49800000  0.40744000  1
  O  O182  1  0.82990000  0.46050000  0.43310000  1
  O  O183  1  0.17010000  0.46050000  0.93310000  1
  O  O184  1  0.93400000  0.39440000  0.16149000  1
  O  O185  1  0.06600000  0.39440000  0.66149000  1
  O  O186  1  0.83120000  0.39210000  0.94057000  1
  O  O187  1  0.16880000  0.39210000  0.44057000  1
  O  O188  1  0.91190000  0.34860000  0.46181000  1
  O  O189  1  0.08810000  0.34860000  0.96181000  1
  O  O190  1  0.92950000  0.31140000  0.59164000  1
  O  O191  1  0.07050000  0.31140000  0.09164000  1
  O  O192  1  0.86680000  0.24190000  0.98970000  1
  O  O193  1  0.13320000  0.24190000  0.48970000  1
  O  O194  1  0.99190000  0.19550000  0.90050000  1
  O  O195  1  0.00810000  0.19550000  0.40050000  1
