# generated using pymatgen
data_NiH29C32N7O2
_symmetry_space_group_name_H-M   'P 1'
_cell_length_a   9.07170000
_cell_length_b   14.93990000
_cell_length_c   15.64288901
_cell_angle_alpha   118.52459988
_cell_angle_beta   105.20891136
_cell_angle_gamma   90.00000000
_symmetry_Int_Tables_number   1
_chemical_formula_structural   NiH29C32N7O2
_chemical_formula_sum   'Ni2 H58 C64 N14 O4'
_cell_volume   1777.76129742
_cell_formula_units_Z   2
loop_
 _symmetry_equiv_pos_site_id
 _symmetry_equiv_pos_as_xyz
  1  'x, y, z'
loop_
 _atom_site_type_symbol
 _atom_site_label
 _atom_site_symmetry_multiplicity
 _atom_site_fract_x
 _atom_site_fract_y
 _atom_site_fract_z
 _atom_site_occupancy
  Ni  Ni0  1  0.50166000  0.75821000  0.42542000  1
  Ni  Ni1  1  0.49834000  0.33279000  0.57458000  1
  H  H2  1  0.99300000  0.83870000  0.35960000  1
  H  H3  1  0.97680000  0.99760000  0.56740000  1
  H  H4  1  0.95490000  0.64180000  0.65340000  1
  H  H5  1  0.95170000  0.11390000  0.89440000  1
  H  H6  1  0.95070000  0.13230000  0.52160000  1
  H  H7  1  0.92430000  0.81410000  0.73640000  1
  H  H8  1  0.89200000  0.51200000  0.84720000  1
  H  H9  1  0.88740000  0.26270000  0.33520000  1
  H  H10  1  0.86650000  0.74990000  0.42340000  1
  H  H11  1  0.84400000  0.60020000  0.82280000  1
  H  H12  1  0.84380000  0.19800000  0.80900000  1
  H  H13  1  0.82650000  0.63700000  0.99020000  1
  H  H14  1  0.82540000  0.93600000  0.99700000  1
  H  H15  1  0.76720000  0.22890000  0.46620000  1
  H  H16  1  0.71240000  0.21490000  0.05680000  1
  H  H17  1  0.69380000  0.86970000  0.82480000  1
  H  H18  1  0.68870000  0.54500000  0.93280000  1
  H  H19  1  0.68770000  0.71090000  0.89380000  1
  H  H20  1  0.66760000  0.84450000  0.66360000  1
  H  H21  1  0.65860000  0.21520000  0.68140000  1
  H  H22  1  0.65100000  0.42030000  0.46060000  1
  H  H23  1  0.62940000  0.70660000  0.05780000  1
  H  H24  1  0.62610000  0.80200000  0.04100000  1
  H  H25  1  0.61490000  0.04020000  0.14660000  1
  H  H26  1  0.59140000  0.15140000  0.88360000  1
  H  H27  1  0.58960000  0.34670000  0.27820000  1
  H  H28  1  0.58430000  0.95080000  0.22940000  1
  H  H29  1  0.57850000  0.91790000  0.35440000  1
  H  H30  1  0.54670000  0.62400000  0.85000000  1
  H  H31  1  0.45330000  0.77400000  0.15000000  1
  H  H32  1  0.42150000  0.56350000  0.64560000  1
  H  H33  1  0.41570000  0.72140000  0.77060000  1
  H  H34  1  0.41040000  0.06850000  0.72180000  1
  H  H35  1  0.40860000  0.26780000  0.11640000  1
  H  H36  1  0.38510000  0.89360000  0.85340000  1
  H  H37  1  0.37390000  0.76100000  0.95900000  1
  H  H38  1  0.37060000  0.64880000  0.94220000  1
  H  H39  1  0.34900000  0.95970000  0.53940000  1
  H  H40  1  0.34140000  0.53380000  0.31860000  1
  H  H41  1  0.33240000  0.18090000  0.33640000  1
  H  H42  1  0.31230000  0.81710000  0.10620000  1
  H  H43  1  0.31130000  0.61220000  0.06720000  1
  H  H44  1  0.30620000  0.04490000  0.17520000  1
  H  H45  1  0.28760000  0.15810000  0.94320000  1
  H  H46  1  0.23280000  0.76270000  0.53380000  1
  H  H47  1  0.17460000  0.93900000  0.00300000  1
  H  H48  1  0.17350000  0.64680000  0.00980000  1
  H  H49  1  0.15620000  0.38900000  0.19100000  1
  H  H50  1  0.15600000  0.77740000  0.17720000  1
  H  H51  1  0.13350000  0.32650000  0.57660000  1
  H  H52  1  0.11260000  0.92750000  0.66480000  1
  H  H53  1  0.10800000  0.66480000  0.15280000  1
  H  H54  1  0.07570000  0.07770000  0.26360000  1
  H  H55  1  0.04930000  0.61070000  0.47840000  1
  H  H56  1  0.04830000  0.21950000  0.10560000  1
  H  H57  1  0.04510000  0.98840000  0.34660000  1
  H  H58  1  0.02320000  0.43020000  0.43260000  1
  H  H59  1  0.00700000  0.47910000  0.64040000  1
  C  C60  1  0.97780000  0.02410000  0.63480000  1
  C  C61  1  0.97720000  0.05232000  0.25684000  1
  C  C62  1  0.96490000  0.09438000  0.83116000  1
  C  C63  1  0.95890000  0.99873000  0.30646000  1
  C  C64  1  0.94540000  0.22417000  0.20594000  1
  C  C65  1  0.94250000  0.28793000  0.30686000  1
  C  C66  1  0.90200000  0.10513000  0.67846000  1
  C  C67  1  0.89490000  0.14237000  0.77914000  1
  C  C68  1  0.89430000  0.84366000  0.36672000  1
  C  C69  1  0.87010000  0.15960000  0.54760000  1
  C  C70  1  0.84830000  0.06785000  0.19694000  1
  C  C71  1  0.82440000  0.79590000  0.40300000  1
  C  C72  1  0.81170000  0.96070000  0.29620000  1
  C  C73  1  0.80640000  0.54710000  0.83400000  1
  C  C74  1  0.78800000  0.08362000  0.04364000  1
  C  C75  1  0.77900000  0.97926000  0.97412000  1
  C  C76  1  0.76820000  0.21370000  0.51740000  1
  C  C77  1  0.74300000  0.59720000  0.92760000  1
  C  C78  1  0.71310000  0.14658000  0.01016000  1
  C  C79  1  0.70930000  0.20587000  0.63394000  1
  C  C80  1  0.70110000  0.93925000  0.87090000  1
  C  C81  1  0.70110000  0.02983000  0.18668000  1
  C  C82  1  0.68280000  0.97625000  0.23630000  1
  C  C83  1  0.67920000  0.47049000  0.73918000  1
  C  C84  1  0.66590000  0.88752000  0.36504000  1
  C  C85  1  0.63820000  0.10806000  0.90632000  1
  C  C86  1  0.63600000  0.66490000  0.90800000  1
  C  C87  1  0.63380000  0.00660000  0.83820000  1
  C  C88  1  0.59760000  0.88730000  0.65540000  1
  C  C89  1  0.58500000  0.72990000  0.00980000  1
  C  C90  1  0.57710000  0.36335000  0.41190000  1
  C  C91  1  0.54580000  0.32274000  0.31228000  1
  C  C92  1  0.45420000  0.01046000  0.68772000  1
  C  C93  1  0.42290000  0.95145000  0.58810000  1
  C  C94  1  0.41500000  0.72010000  0.99020000  1
  C  C95  1  0.40240000  0.23190000  0.34460000  1
  C  C96  1  0.36620000  0.16840000  0.16180000  1
  C  C97  1  0.36400000  0.75690000  0.09200000  1
  C  C98  1  0.36180000  0.20174000  0.09368000  1
  C  C99  1  0.33410000  0.52248000  0.63496000  1
  C  C100  1  0.32080000  0.73131000  0.26082000  1
  C  C101  1  0.31720000  0.73995000  0.76370000  1
  C  C102  1  0.29890000  0.84315000  0.81332000  1
  C  C103  1  0.29890000  0.06835000  0.12910000  1
  C  C104  1  0.29070000  0.57193000  0.36606000  1
  C  C105  1  0.28690000  0.13642000  0.98984000  1
  C  C106  1  0.25700000  0.66960000  0.07240000  1
  C  C107  1  0.23180000  0.69630000  0.48260000  1
  C  C108  1  0.22100000  0.00514000  0.02588000  1
  C  C109  1  0.21200000  0.03998000  0.95636000  1
  C  C110  1  0.19360000  0.71310000  0.16600000  1
  C  C111  1  0.18830000  0.66450000  0.70380000  1
  C  C112  1  0.17560000  0.39290000  0.59700000  1
  C  C113  1  0.15170000  0.87091000  0.80306000  1
  C  C114  1  0.12990000  0.61200000  0.45240000  1
  C  C115  1  0.10570000  0.47694000  0.63328000  1
  C  C116  1  0.10510000  0.36323000  0.22086000  1
  C  C117  1  0.09800000  0.42667000  0.32154000  1
  C  C118  1  0.05750000  0.98107000  0.69314000  1
  C  C119  1  0.05460000  0.01823000  0.79406000  1
  C  C120  1  0.04110000  0.69227000  0.69354000  1
  C  C121  1  0.03510000  0.26322000  0.16884000  1
  C  C122  1  0.02280000  0.79548000  0.74316000  1
  C  C123  1  0.02220000  0.38930000  0.36520000  1
  N  N124  1  0.86750000  0.12423000  0.14786000  1
  N  N125  1  0.83120000  0.15337000  0.62234000  1
  N  N126  1  0.79290000  0.90017000  0.34274000  1
  N  N127  1  0.68070000  0.82522000  0.40504000  1
  N  N128  1  0.67180000  0.24107000  0.57234000  1
  N  N129  1  0.56740000  0.96758000  0.73196000  1
  N  N130  1  0.51770000  0.87505000  0.56690000  1
  N  N131  1  0.48230000  0.30815000  0.43310000  1
  N  N132  1  0.43260000  0.23562000  0.26804000  1
  N  N133  1  0.32820000  0.66873000  0.42766000  1
  N  N134  1  0.31930000  0.42018000  0.59496000  1
  N  N135  1  0.20710000  0.55743000  0.65726000  1
  N  N136  1  0.16880000  0.53103000  0.37766000  1
  N  N137  1  0.13250000  0.97637000  0.85214000  1
  O  O138  1  0.66700000  0.46868000  0.65696000  1
  O  O139  1  0.59300000  0.40761000  0.74102000  1
  O  O140  1  0.40700000  0.66659000  0.25898000  1
  O  O141  1  0.33300000  0.81172000  0.34304000  1
