# generated using pymatgen
data_ErH32C40(NO)8
_symmetry_space_group_name_H-M   'P 1'
_cell_length_a   24.00100000
_cell_length_b   24.14230000
_cell_length_c   24.35640000
_cell_angle_alpha   85.62600000
_cell_angle_beta   61.31900000
_cell_angle_gamma   60.94400000
_symmetry_Int_Tables_number   1
_chemical_formula_structural   ErH32C40(NO)8
_chemical_formula_sum   'Er6 H192 C240 N48 O48'
_cell_volume   10594.49503077
_cell_formula_units_Z   6
loop_
 _symmetry_equiv_pos_site_id
 _symmetry_equiv_pos_as_xyz
  1  'x, y, z'
loop_
 _atom_site_type_symbol
 _atom_site_label
 _atom_site_symmetry_multiplicity
 _atom_site_fract_x
 _atom_site_fract_y
 _atom_site_fract_z
 _atom_site_occupancy
  Er  Er0  1  0.14926000  0.28508000  0.64381000  1
  Er  Er1  1  0.25530000  0.71940000  0.76039000  1
  Er  Er2  1  0.36359000  0.84524000  0.19891000  1
  Er  Er3  1  0.63641000  0.15476000  0.80109000  1
  Er  Er4  1  0.74470000  0.28060000  0.23961000  1
  Er  Er5  1  0.85074000  0.71492000  0.35619000  1
  H  H6  1  0.00620000  0.16530000  0.61730000  1
  H  H7  1  0.01760000  0.53750000  0.33740000  1
  H  H8  1  0.01790000  0.81550000  0.02850000  1
  H  H9  1  0.02320000  0.46910000  0.75070000  1
  H  H10  1  0.03600000  0.83470000  0.68000000  1
  H  H11  1  0.04330000  0.62380000  0.17910000  1
  H  H12  1  0.04880000  0.55260000  0.73780000  1
  H  H13  1  0.05440000  0.89230000  0.84270000  1
  H  H14  1  0.05840000  0.06530000  0.32380000  1
  H  H15  1  0.05990000  0.05960000  0.14510000  1
  H  H16  1  0.06490000  0.62840000  0.77510000  1
  H  H17  1  0.06850000  0.18940000  0.88560000  1
  H  H18  1  0.07140000  0.86190000  0.35650000  1
  H  H19  1  0.07240000  0.63360000  0.28890000  1
  H  H20  1  0.07290000  0.48680000  0.39320000  1
  H  H21  1  0.07320000  0.82280000  0.92150000  1
  H  H22  1  0.08060000  0.20640000  0.57470000  1
  H  H23  1  0.08770000  0.62990000  0.97310000  1
  H  H24  1  0.08790000  0.15790000  0.69090000  1
  H  H25  1  0.09000000  0.62170000  0.07090000  1
  H  H26  1  0.09930000  0.70670000  0.75510000  1
  H  H27  1  0.10960000  0.06930000  0.73800000  1
  H  H28  1  0.11250000  0.19190000  0.77640000  1
  H  H29  1  0.12150000  0.43030000  0.44410000  1
  H  H30  1  0.12920000  0.64130000  0.86950000  1
  H  H31  1  0.14150000  0.25990000  0.49000000  1
  H  H32  1  0.14350000  0.90800000  0.31300000  1
  H  H33  1  0.14460000  0.00120000  0.79750000  1
  H  H34  1  0.14650000  0.79260000  0.67210000  1
  H  H35  1  0.14860000  0.67580000  0.24300000  1
  H  H36  1  0.16590000  0.06980000  0.13670000  1
  H  H37  1  0.17060000  0.17270000  0.42930000  1
  H  H38  1  0.17120000  0.90670000  0.83740000  1
  H  H39  1  0.17240000  0.26300000  0.79790000  1
  H  H40  1  0.17360000  0.82630000  0.92550000  1
  H  H41  1  0.17430000  0.99970000  0.31570000  1
  H  H42  1  0.17840000  0.37810000  0.50150000  1
  H  H43  1  0.18990000  0.06020000  0.43750000  1
  H  H44  1  0.20230000  0.72680000  0.19300000  1
  H  H45  1  0.20830000  0.83950000  0.47650000  1
  H  H46  1  0.20920000  0.85510000  0.38280000  1
  H  H47  1  0.21290000  0.86600000  0.97540000  1
  H  H48  1  0.21880000  0.96380000  0.39340000  1
  H  H49  1  0.22760000  0.34470000  0.71780000  1
  H  H50  1  0.22960000  0.88290000  0.04500000  1
  H  H51  1  0.23080000  0.39790000  0.58830000  1
  H  H52  1  0.24700000  0.26800000  0.82820000  1
  H  H53  1  0.24730000  0.60610000  0.88890000  1
  H  H54  1  0.24890000  0.43010000  0.71300000  1
  H  H55  1  0.24920000  0.84390000  0.54100000  1
  H  H56  1  0.25300000  0.83080000  0.63700000  1
  H  H57  1  0.25920000  0.91510000  0.10860000  1
  H  H58  1  0.27600000  0.77380000  0.15190000  1
  H  H59  1  0.27730000  0.00560000  0.13320000  1
  H  H60  1  0.27980000  0.49170000  0.65270000  1
  H  H61  1  0.30110000  0.08880000  0.57380000  1
  H  H62  1  0.31060000  0.57450000  0.64090000  1
  H  H63  1  0.31530000  0.41540000  0.49720000  1
  H  H64  1  0.32610000  0.52230000  0.91630000  1
  H  H65  1  0.32770000  0.25020000  0.85590000  1
  H  H66  1  0.33180000  0.99610000  0.61760000  1
  H  H67  1  0.33810000  0.16150000  0.47720000  1
  H  H68  1  0.34310000  0.15070000  0.63210000  1
  H  H69  1  0.34460000  0.90040000  0.63380000  1
  H  H70  1  0.36150000  0.65600000  0.85720000  1
  H  H71  1  0.36360000  0.80750000  0.67600000  1
  H  H72  1  0.36500000  0.68000000  0.20120000  1
  H  H73  1  0.36780000  0.07520000  0.41340000  1
  H  H74  1  0.37430000  0.65010000  0.47660000  1
  H  H75  1  0.37560000  0.20580000  0.52620000  1
  H  H76  1  0.38150000  0.40910000  0.91930000  1
  H  H77  1  0.38410000  0.63810000  0.56940000  1
  H  H78  1  0.39290000  0.99560000  0.17860000  1
  H  H79  1  0.39630000  0.02300000  0.31280000  1
  H  H80  1  0.40330000  0.52950000  0.70430000  1
  H  H81  1  0.40480000  0.68720000  0.90460000  1
  H  H82  1  0.40890000  0.70120000  0.28660000  1
  H  H83  1  0.40930000  0.67860000  0.38370000  1
  H  H84  1  0.41390000  0.24940000  0.87580000  1
  H  H85  1  0.41500000  0.05500000  0.09990000  1
  H  H86  1  0.42190000  0.72510000  0.74710000  1
  H  H87  1  0.42270000  0.92970000  0.26300000  1
  H  H88  1  0.42340000  0.15190000  0.65700000  1
  H  H89  1  0.43040000  0.10940000  0.03510000  1
  H  H90  1  0.43640000  0.40590000  0.45480000  1
  H  H91  1  0.43990000  0.58230000  0.21580000  1
  H  H92  1  0.44230000  0.74040000  0.94070000  1
  H  H93  1  0.44240000  0.79330000  0.31310000  1
  H  H94  1  0.45670000  0.16860000  0.95250000  1
  H  H95  1  0.45760000  0.22370000  0.43850000  1
  H  H96  1  0.45960000  0.31390000  0.93170000  1
  H  H97  1  0.46450000  0.58600000  0.63170000  1
  H  H98  1  0.46970000  0.77640000  0.00560000  1
  H  H99  1  0.47980000  0.19050000  0.66700000  1
  H  H100  1  0.48110000  0.44970000  0.73370000  1
  H  H101  1  0.48170000  0.26470000  0.33600000  1
  H  H102  1  0.51830000  0.73530000  0.66400000  1
  H  H103  1  0.51890000  0.55030000  0.26630000  1
  H  H104  1  0.52020000  0.80950000  0.33300000  1
  H  H105  1  0.53030000  0.22360000  0.99440000  1
  H  H106  1  0.53550000  0.41400000  0.36830000  1
  H  H107  1  0.54040000  0.68610000  0.06830000  1
  H  H108  1  0.54240000  0.77630000  0.56150000  1
  H  H109  1  0.54330000  0.83140000  0.04750000  1
  H  H110  1  0.55760000  0.20670000  0.68690000  1
  H  H111  1  0.55770000  0.25960000  0.05930000  1
  H  H112  1  0.56010000  0.41770000  0.78420000  1
  H  H113  1  0.56360000  0.59410000  0.54520000  1
  H  H114  1  0.56960000  0.89060000  0.96490000  1
  H  H115  1  0.57660000  0.84810000  0.34300000  1
  H  H116  1  0.57730000  0.07030000  0.73700000  1
  H  H117  1  0.57810000  0.27490000  0.25290000  1
  H  H118  1  0.58500000  0.94500000  0.90010000  1
  H  H119  1  0.58610000  0.75060000  0.12420000  1
  H  H120  1  0.59070000  0.32140000  0.61630000  1
  H  H121  1  0.59110000  0.29880000  0.71340000  1
  H  H122  1  0.59520000  0.31280000  0.09540000  1
  H  H123  1  0.59670000  0.47050000  0.29570000  1
  H  H124  1  0.60370000  0.97700000  0.68720000  1
  H  H125  1  0.60710000  0.00440000  0.82140000  1
  H  H126  1  0.61590000  0.36190000  0.43060000  1
  H  H127  1  0.61850000  0.59090000  0.08070000  1
  H  H128  1  0.62440000  0.79420000  0.47380000  1
  H  H129  1  0.62570000  0.34990000  0.52340000  1
  H  H130  1  0.63220000  0.92480000  0.58660000  1
  H  H131  1  0.63500000  0.32000000  0.79880000  1
  H  H132  1  0.63640000  0.19250000  0.32400000  1
  H  H133  1  0.63850000  0.34400000  0.14280000  1
  H  H134  1  0.65540000  0.09960000  0.36620000  1
  H  H135  1  0.65690000  0.84930000  0.36790000  1
  H  H136  1  0.66190000  0.83850000  0.52280000  1
  H  H137  1  0.66820000  0.00390000  0.38240000  1
  H  H138  1  0.67230000  0.74980000  0.14410000  1
  H  H139  1  0.67390000  0.47770000  0.08370000  1
  H  H140  1  0.68470000  0.58460000  0.50280000  1
  H  H141  1  0.68940000  0.42550000  0.35910000  1
  H  H142  1  0.69890000  0.91120000  0.42620000  1
  H  H143  1  0.72020000  0.50830000  0.34730000  1
  H  H144  1  0.72270000  0.99440000  0.86680000  1
  H  H145  1  0.72400000  0.22620000  0.84810000  1
  H  H146  1  0.74080000  0.08490000  0.89140000  1
  H  H147  1  0.74700000  0.16920000  0.36300000  1
  H  H148  1  0.75080000  0.15610000  0.45900000  1
  H  H149  1  0.75110000  0.56990000  0.28700000  1
  H  H150  1  0.75270000  0.39390000  0.11110000  1
  H  H151  1  0.75300000  0.73200000  0.17180000  1
  H  H152  1  0.76920000  0.60210000  0.41170000  1
  H  H153  1  0.77040000  0.11710000  0.95500000  1
  H  H154  1  0.77240000  0.65530000  0.28220000  1
  H  H155  1  0.78120000  0.03620000  0.60660000  1
  H  H156  1  0.78710000  0.13400000  0.02460000  1
  H  H157  1  0.79080000  0.14490000  0.61720000  1
  H  H158  1  0.79170000  0.16050000  0.52350000  1
  H  H159  1  0.79770000  0.27320000  0.80700000  1
  H  H160  1  0.81010000  0.93980000  0.56250000  1
  H  H161  1  0.82160000  0.62190000  0.49850000  1
  H  H162  1  0.82570000  0.00030000  0.68430000  1
  H  H163  1  0.82640000  0.17370000  0.07450000  1
  H  H164  1  0.82760000  0.73700000  0.20210000  1
  H  H165  1  0.82880000  0.09330000  0.16260000  1
  H  H166  1  0.82940000  0.82730000  0.57070000  1
  H  H167  1  0.83410000  0.93020000  0.86330000  1
  H  H168  1  0.85140000  0.32420000  0.75700000  1
  H  H169  1  0.85350000  0.20740000  0.32790000  1
  H  H170  1  0.85540000  0.99880000  0.20250000  1
  H  H171  1  0.85650000  0.09200000  0.68700000  1
  H  H172  1  0.85850000  0.74010000  0.51000000  1
  H  H173  1  0.87080000  0.35870000  0.13050000  1
  H  H174  1  0.87850000  0.56970000  0.55590000  1
  H  H175  1  0.88750000  0.80810000  0.22360000  1
  H  H176  1  0.89040000  0.93070000  0.26200000  1
  H  H177  1  0.90070000  0.29330000  0.24490000  1
  H  H178  1  0.91000000  0.37830000  0.92910000  1
  H  H179  1  0.91210000  0.84210000  0.30910000  1
  H  H180  1  0.91230000  0.37010000  0.02690000  1
  H  H181  1  0.91940000  0.79360000  0.42530000  1
  H  H182  1  0.92680000  0.17720000  0.07850000  1
  H  H183  1  0.92710000  0.51320000  0.60680000  1
  H  H184  1  0.92760000  0.36640000  0.71110000  1
  H  H185  1  0.92860000  0.13810000  0.64350000  1
  H  H186  1  0.93150000  0.81060000  0.11440000  1
  H  H187  1  0.93510000  0.37160000  0.22490000  1
  H  H188  1  0.94010000  0.94040000  0.85490000  1
  H  H189  1  0.94160000  0.93470000  0.67620000  1
  H  H190  1  0.94560000  0.10770000  0.15730000  1
  H  H191  1  0.95120000  0.44740000  0.26220000  1
  H  H192  1  0.95670000  0.37620000  0.82090000  1
  H  H193  1  0.96400000  0.16530000  0.32000000  1
  H  H194  1  0.97680000  0.53090000  0.24930000  1
  H  H195  1  0.98210000  0.18450000  0.97150000  1
  H  H196  1  0.98240000  0.46250000  0.66260000  1
  H  H197  1  0.99380000  0.83470000  0.38270000  1
  C  C198  1  0.00990000  0.79310000  0.36300000  1
  C  C199  1  0.01140000  0.45650000  0.61750000  1
  C  C200  1  0.01570000  0.71700000  0.08090000  1
  C  C201  1  0.01820000  0.09010000  0.18320000  1
  C  C202  1  0.01880000  0.48310000  0.51900000  1
  C  C203  1  0.02050000  0.51290000  0.41530000  1
  C  C204  1  0.02240000  0.66240000  0.16490000  1
  C  C205  1  0.02800000  0.10570000  0.23030000  1
  C  C206  1  0.03360000  0.23050000  0.61240000  1
  C  C207  1  0.03880000  0.84790000  0.71400000  1
  C  C208  1  0.04200000  0.77930000  0.99590000  1
  C  C209  1  0.04430000  0.22800000  0.87300000  1
  C  C210  1  0.04520000  0.72190000  0.01220000  1
  C  C211  1  0.04920000  0.66060000  0.10120000  1
  C  C212  1  0.04940000  0.88240000  0.80890000  1
  C  C213  1  0.05580000  0.67570000  0.30750000  1
  C  C214  1  0.06970000  0.22900000  0.80800000  1
  C  C215  1  0.07040000  0.46040000  0.74120000  1
  C  C216  1  0.07380000  0.78400000  0.93260000  1
  C  C217  1  0.08070000  0.75810000  0.30770000  1
  C  C218  1  0.08150000  0.67060000  0.96310000  1
  C  C219  1  0.08560000  0.51010000  0.73450000  1
  C  C220  1  0.09270000  0.43900000  0.48940000  1
  C  C221  1  0.09830000  0.07240000  0.22940000  1
  C  C222  1  0.10180000  0.70010000  0.28070000  1
  C  C223  1  0.10250000  0.05250000  0.28380000  1
  C  C224  1  0.10320000  0.82370000  0.70920000  1
  C  C225  1  0.10840000  0.67640000  0.90190000  1
  C  C226  1  0.11320000  0.84310000  0.31450000  1
  C  C227  1  0.11500000  0.61630000  0.74660000  1
  C  C228  1  0.12630000  0.40690000  0.52320000  1
  C  C229  1  0.12930000  0.78700000  0.28100000  1
  C  C230  1  0.13600000  0.66240000  0.73600000  1
  C  C231  1  0.13740000  0.12450000  0.67690000  1
  C  C232  1  0.15010000  0.07170000  0.70440000  1
  C  C233  1  0.15200000  0.49980000  0.72320000  1
  C  C234  1  0.15510000  0.87100000  0.28890000  1
  C  C235  1  0.16590000  0.05500000  0.17400000  1
  C  C236  1  0.16870000  0.55200000  0.71490000  1
  C  C237  1  0.17140000  0.01390000  0.27920000  1
  C  C238  1  0.18780000  0.22100000  0.47530000  1
  C  C239  1  0.19020000  0.76310000  0.21860000  1
  C  C240  1  0.19020000  0.96230000  0.77200000  1
  C  C241  1  0.19030000  0.38760000  0.72280000  1
  C  C242  1  0.20320000  0.43840000  0.71890000  1
  C  C243  1  0.20510000  0.90620000  0.79540000  1
  C  C244  1  0.20560000  0.16940000  0.43930000  1
  C  C245  1  0.22020000  0.79910000  0.92250000  1
  C  C246  1  0.22210000  0.02140000  0.68360000  1
  C  C247  1  0.22420000  0.24170000  0.76880000  1
  C  C248  1  0.23220000  0.01730000  0.17170000  1
  C  C249  1  0.23330000  0.79180000  0.19350000  1
  C  C250  1  0.23850000  0.03230000  0.40300000  1
  C  C251  1  0.24110000  0.96320000  0.71130000  1
  C  C252  1  0.24250000  0.53510000  0.67480000  1
  C  C253  1  0.24310000  0.82230000  0.95290000  1
  C  C254  1  0.25040000  0.81020000  0.43780000  1
  C  C255  1  0.25120000  0.81980000  0.38260000  1
  C  C256  1  0.25460000  0.97660000  0.37670000  1
  C  C257  1  0.26090000  0.58460000  0.66770000  1
  C  C258  1  0.26290000  0.08410000  0.60800000  1
  C  C259  1  0.26820000  0.24460000  0.78700000  1
  C  C260  1  0.27220000  0.11170000  0.41600000  1
  C  C261  1  0.27610000  0.80180000  0.54720000  1
  C  C262  1  0.27730000  0.36250000  0.55780000  1
  C  C263  1  0.27910000  0.85930000  0.03640000  1
  C  C264  1  0.27930000  0.79450000  0.60380000  1
  C  C265  1  0.28150000  0.02850000  0.63310000  1
  C  C266  1  0.29190000  0.05140000  0.38100000  1
  C  C267  1  0.29480000  0.57350000  0.85660000  1
  C  C268  1  0.29670000  0.87950000  0.07350000  1
  C  C269  1  0.30320000  0.16370000  0.46760000  1
  C  C270  1  0.30800000  0.90270000  0.67510000  1
  C  C271  1  0.31030000  0.75790000  0.43940000  1
  C  C272  1  0.31060000  0.78180000  0.95070000  1
  C  C273  1  0.31190000  0.74790000  0.50050000  1
  C  C274  1  0.31920000  0.84760000  0.70020000  1
  C  C275  1  0.31990000  0.11260000  0.43040000  1
  C  C276  1  0.32390000  0.17590000  0.67170000  1
  C  C277  1  0.32810000  0.37240000  0.50310000  1
  C  C278  1  0.33070000  0.80570000  0.98690000  1
  C  C279  1  0.33140000  0.69840000  0.88270000  1
  C  C280  1  0.34300000  0.52420000  0.87240000  1
  C  C281  1  0.34740000  0.21200000  0.74380000  1
  C  C282  1  0.35110000  0.68700000  0.50810000  1
  C  C283  1  0.35630000  0.68010000  0.56370000  1
  C  C284  1  0.35710000  0.71610000  0.91030000  1
  C  C285  1  0.35950000  0.01140000  0.32910000  1
  C  C286  1  0.36350000  0.24880000  0.52070000  1
  C  C287  1  0.36780000  0.72940000  0.32620000  1
  C  C288  1  0.36870000  0.71600000  0.38420000  1
  C  C289  1  0.37180000  0.17660000  0.68670000  1
  C  C290  1  0.37580000  0.95580000  0.30010000  1
  C  C291  1  0.37590000  0.23800000  0.82150000  1
  C  C292  1  0.38700000  0.52840000  0.74820000  1
  C  C293  1  0.39410000  0.32290000  0.45870000  1
  C  C294  1  0.39650000  0.21730000  0.75850000  1
  C  C295  1  0.40360000  0.77620000  0.97540000  1
  C  C296  1  0.41140000  0.25950000  0.46880000  1
  C  C297  1  0.41160000  0.47950000  0.82930000  1
  C  C298  1  0.41710000  0.66170000  0.17830000  1
  C  C299  1  0.42060000  0.79790000  0.01340000  1
  C  C300  1  0.42540000  0.24070000  0.83310000  1
  C  C301  1  0.42770000  0.97450000  0.13500000  1
  C  C302  1  0.43290000  0.48170000  0.76590000  1
  C  C303  1  0.43340000  0.39090000  0.89270000  1
  C  C304  1  0.44140000  0.00920000  0.08790000  1
  C  C305  1  0.45040000  0.69850000  0.70590000  1
  C  C306  1  0.45150000  0.33090000  0.40350000  1
  C  C307  1  0.46130000  0.42400000  0.84540000  1
  C  C308  1  0.46170000  0.60410000  0.18700000  1
  C  C309  1  0.46470000  0.20500000  0.70970000  1
  C  C310  1  0.46540000  0.37800000  0.41410000  1
  C  C311  1  0.46760000  0.08720000  0.99220000  1
  C  C312  1  0.47570000  0.61690000  0.63790000  1
  C  C313  1  0.47910000  0.33500000  0.89990000  1
  C  C314  1  0.48340000  0.12270000  0.94220000  1
  C  C315  1  0.48820000  0.78680000  0.27880000  1
  C  C316  1  0.49190000  0.98060000  0.02360000  1
  C  C317  1  0.49210000  0.29530000  0.34440000  1
  C  C318  1  0.50790000  0.70470000  0.65560000  1
  C  C319  1  0.50810000  0.01940000  0.97640000  1
  C  C320  1  0.51180000  0.21320000  0.72120000  1
  C  C321  1  0.51660000  0.87730000  0.05780000  1
  C  C322  1  0.52090000  0.66500000  0.10010000  1
  C  C323  1  0.52430000  0.38310000  0.36210000  1
  C  C324  1  0.53240000  0.91280000  0.00780000  1
  C  C325  1  0.53460000  0.62200000  0.58590000  1
  C  C326  1  0.53530000  0.79500000  0.29030000  1
  C  C327  1  0.53830000  0.39590000  0.81300000  1
  C  C328  1  0.53870000  0.57600000  0.15460000  1
  C  C329  1  0.54850000  0.66910000  0.59650000  1
  C  C330  1  0.54960000  0.30150000  0.29410000  1
  C  C331  1  0.55860000  0.99080000  0.91210000  1
  C  C332  1  0.56660000  0.60910000  0.10730000  1
  C  C333  1  0.56710000  0.51830000  0.23410000  1
  C  C334  1  0.57230000  0.02550000  0.86500000  1
  C  C335  1  0.57460000  0.75930000  0.16690000  1
  C  C336  1  0.57940000  0.20210000  0.98660000  1
  C  C337  1  0.58290000  0.33830000  0.82170000  1
  C  C338  1  0.58840000  0.52050000  0.17070000  1
  C  C339  1  0.58860000  0.74050000  0.53120000  1
  C  C340  1  0.59640000  0.22380000  0.02460000  1
  C  C341  1  0.60350000  0.78270000  0.24150000  1
  C  C342  1  0.60590000  0.67710000  0.54130000  1
  C  C343  1  0.61300000  0.47160000  0.25180000  1
  C  C344  1  0.62410000  0.76200000  0.17850000  1
  C  C345  1  0.62420000  0.04420000  0.69990000  1
  C  C346  1  0.62820000  0.82340000  0.31330000  1
  C  C347  1  0.63130000  0.28400000  0.61580000  1
  C  C348  1  0.63220000  0.27060000  0.67380000  1
  C  C349  1  0.63650000  0.75120000  0.47930000  1
  C  C350  1  0.64050000  0.98860000  0.67090000  1
  C  C351  1  0.64290000  0.28390000  0.08970000  1
  C  C352  1  0.64370000  0.31990000  0.43630000  1
  C  C353  1  0.64890000  0.31300000  0.49190000  1
  C  C354  1  0.65260000  0.78800000  0.25620000  1
  C  C355  1  0.65700000  0.47580000  0.12760000  1
  C  C356  1  0.66860000  0.30160000  0.11730000  1
  C  C357  1  0.66930000  0.19430000  0.01310000  1
  C  C358  1  0.67190000  0.62760000  0.49690000  1
  C  C359  1  0.67610000  0.82410000  0.32830000  1
  C  C360  1  0.68010000  0.88740000  0.56960000  1
  C  C361  1  0.68080000  0.15240000  0.29980000  1
  C  C362  1  0.68810000  0.25210000  0.49950000  1
  C  C363  1  0.68940000  0.21820000  0.04930000  1
  C  C364  1  0.68970000  0.24210000  0.56060000  1
  C  C365  1  0.69200000  0.09730000  0.32490000  1
  C  C366  1  0.69680000  0.83630000  0.53240000  1
  C  C367  1  0.70330000  0.12050000  0.92650000  1
  C  C368  1  0.70520000  0.42650000  0.14340000  1
  C  C369  1  0.70810000  0.94860000  0.61900000  1
  C  C370  1  0.71850000  0.97150000  0.36690000  1
  C  C371  1  0.72070000  0.20550000  0.39620000  1
  C  C372  1  0.72090000  0.14070000  0.96360000  1
  C  C373  1  0.72270000  0.63750000  0.44220000  1
  C  C374  1  0.72390000  0.19820000  0.45280000  1
  C  C375  1  0.72780000  0.88830000  0.58400000  1
  C  C376  1  0.73180000  0.75540000  0.21300000  1
  C  C377  1  0.73710000  0.91590000  0.39200000  1
  C  C378  1  0.73910000  0.41540000  0.33230000  1
  C  C379  1  0.74540000  0.02340000  0.62330000  1
  C  C380  1  0.74880000  0.18020000  0.61740000  1
  C  C381  1  0.74960000  0.18980000  0.56220000  1
  C  C382  1  0.75690000  0.17770000  0.04710000  1
  C  C383  1  0.75750000  0.46490000  0.32520000  1
  C  C384  1  0.75890000  0.03680000  0.28870000  1
  C  C385  1  0.76150000  0.96770000  0.59700000  1
  C  C386  1  0.76670000  0.20820000  0.80650000  1
  C  C387  1  0.76780000  0.98270000  0.82830000  1
  C  C388  1  0.77580000  0.75830000  0.23120000  1
  C  C389  1  0.77790000  0.97860000  0.31640000  1
  C  C390  1  0.77980000  0.20090000  0.07750000  1
  C  C391  1  0.79440000  0.83060000  0.56070000  1
  C  C392  1  0.79490000  0.09380000  0.20460000  1
  C  C393  1  0.79680000  0.56160000  0.28110000  1
  C  C394  1  0.80970000  0.61240000  0.27720000  1
  C  C395  1  0.80980000  0.03770000  0.22800000  1
  C  C396  1  0.80980000  0.23690000  0.78140000  1
  C  C397  1  0.81220000  0.77900000  0.52470000  1
  C  C398  1  0.82860000  0.98610000  0.72080000  1
  C  C399  1  0.83130000  0.44800000  0.28510000  1
  C  C400  1  0.83410000  0.94500000  0.82600000  1
  C  C401  1  0.84490000  0.12900000  0.71110000  1
  C  C402  1  0.84800000  0.50020000  0.27680000  1
  C  C403  1  0.84990000  0.92830000  0.29560000  1
  C  C404  1  0.86260000  0.87550000  0.32310000  1
  C  C405  1  0.86400000  0.33760000  0.26400000  1
  C  C406  1  0.87070000  0.21300000  0.71900000  1
  C  C407  1  0.87370000  0.59310000  0.47680000  1
  C  C408  1  0.88500000  0.38370000  0.25340000  1
  C  C409  1  0.88680000  0.15690000  0.68550000  1
  C  C410  1  0.89160000  0.32360000  0.09810000  1
  C  C411  1  0.89680000  0.17630000  0.29080000  1
  C  C412  1  0.89750000  0.94750000  0.71620000  1
  C  C413  1  0.89820000  0.29990000  0.71930000  1
  C  C414  1  0.90170000  0.92760000  0.77060000  1
  C  C415  1  0.90730000  0.56100000  0.51060000  1
  C  C416  1  0.91440000  0.48990000  0.26550000  1
  C  C417  1  0.91850000  0.32940000  0.03690000  1
  C  C418  1  0.91930000  0.24190000  0.69230000  1
  C  C419  1  0.92620000  0.21600000  0.06740000  1
  C  C420  1  0.92960000  0.53960000  0.25880000  1
  C  C421  1  0.93030000  0.77100000  0.19200000  1
  C  C422  1  0.94420000  0.32430000  0.69250000  1
  C  C423  1  0.95060000  0.11760000  0.19110000  1
  C  C424  1  0.95080000  0.33940000  0.89880000  1
  C  C425  1  0.95480000  0.27810000  0.98780000  1
  C  C426  1  0.95570000  0.77200000  0.12700000  1
  C  C427  1  0.95800000  0.22070000  0.00410000  1
  C  C428  1  0.96120000  0.15210000  0.28600000  1
  C  C429  1  0.96640000  0.76950000  0.38760000  1
  C  C430  1  0.97200000  0.89430000  0.76970000  1
  C  C431  1  0.97760000  0.33760000  0.83510000  1
  C  C432  1  0.97950000  0.48710000  0.58470000  1
  C  C433  1  0.98120000  0.51690000  0.48100000  1
  C  C434  1  0.98180000  0.90990000  0.81680000  1
  C  C435  1  0.98430000  0.28300000  0.91910000  1
  C  C436  1  0.98860000  0.54350000  0.38250000  1
  C  C437  1  0.99010000  0.20690000  0.63700000  1
  N  N438  1  0.01180000  0.29060000  0.64100000  1
  N  N439  1  0.03330000  0.28200000  0.79140000  1
  N  N440  1  0.08590000  0.41620000  0.58720000  1
  N  N441  1  0.10600000  0.73280000  0.88610000  1
  N  N442  1  0.10900000  0.84220000  0.75610000  1
  N  N443  1  0.12320000  0.40030000  0.73400000  1
  N  N444  1  0.19350000  0.13040000  0.63030000  1
  N  N445  1  0.20680000  0.64530000  0.69960000  1
  N  N446  1  0.21370000  0.84500000  0.22860000  1
  N  N447  1  0.23260000  0.99740000  0.22350000  1
  N  N448  1  0.23670000  0.21670000  0.49020000  1
  N  N449  1  0.25210000  0.20930000  0.71070000  1
  N  N450  1  0.26460000  0.73700000  0.88830000  1
  N  N451  1  0.26890000  0.85000000  0.75760000  1
  N  N452  1  0.29720000  0.30070000  0.56540000  1
  N  N453  1  0.31020000  0.78060000  0.32720000  1
  N  N454  1  0.31720000  0.57380000  0.79430000  1
  N  N455  1  0.32220000  0.73250000  0.60910000  1
  N  N456  1  0.32440000  0.93730000  0.32440000  1
  N  N457  1  0.36690000  0.84920000  0.06040000  1
  N  N458  1  0.43660000  0.65540000  0.69500000  1
  N  N459  1  0.44730000  0.69180000  0.13760000  1
  N  N460  1  0.46670000  0.90710000  0.11670000  1
  N  N461  1  0.49050000  0.23090000  0.78360000  1
  N  N462  1  0.50950000  0.76910000  0.21640000  1
  N  N463  1  0.53330000  0.09290000  0.88330000  1
  N  N464  1  0.55270000  0.30820000  0.86240000  1
  N  N465  1  0.56340000  0.34460000  0.30500000  1
  N  N466  1  0.63310000  0.15080000  0.93960000  1
  N  N467  1  0.67560000  0.06270000  0.67560000  1
  N  N468  1  0.67780000  0.26750000  0.39090000  1
  N  N469  1  0.68280000  0.42620000  0.20570000  1
  N  N470  1  0.68980000  0.21940000  0.67280000  1
  N  N471  1  0.70280000  0.69930000  0.43460000  1
  N  N472  1  0.73110000  0.15000000  0.24240000  1
  N  N473  1  0.73540000  0.26300000  0.11170000  1
  N  N474  1  0.74790000  0.79070000  0.28930000  1
  N  N475  1  0.76330000  0.78330000  0.50980000  1
  N  N476  1  0.76740000  0.00260000  0.77650000  1
  N  N477  1  0.78630000  0.15500000  0.77140000  1
  N  N478  1  0.79320000  0.35470000  0.30040000  1
  N  N479  1  0.80650000  0.86960000  0.36970000  1
  N  N480  1  0.87680000  0.59970000  0.26600000  1
  N  N481  1  0.89100000  0.15780000  0.24390000  1
  N  N482  1  0.89400000  0.26720000  0.11390000  1
  N  N483  1  0.91410000  0.58380000  0.41280000  1
  N  N484  1  0.96670000  0.71800000  0.20860000  1
  N  N485  1  0.98820000  0.70940000  0.35900000  1
  O  O486  1  0.05160000  0.28130000  0.72970000  1
  O  O487  1  0.05740000  0.31350000  0.61770000  1
  O  O488  1  0.11260000  0.35050000  0.73550000  1
  O  O489  1  0.11860000  0.38720000  0.62020000  1
  O  O490  1  0.13450000  0.73930000  0.82660000  1
  O  O491  1  0.17710000  0.81870000  0.74720000  1
  O  O492  1  0.17820000  0.18280000  0.60430000  1
  O  O493  1  0.20650000  0.20960000  0.69400000  1
  O  O494  1  0.21940000  0.26610000  0.52950000  1
  O  O495  1  0.22640000  0.69020000  0.69330000  1
  O  O496  1  0.23950000  0.71600000  0.86200000  1
  O  O497  1  0.25220000  0.29020000  0.61810000  1
  O  O498  1  0.25290000  0.87420000  0.20550000  1
  O  O499  1  0.27260000  0.61690000  0.77620000  1
  O  O500  1  0.27990000  0.79560000  0.78170000  1
  O  O501  1  0.29720000  0.95930000  0.22010000  1
  O  O502  1  0.31160000  0.79090000  0.27220000  1
  O  O503  1  0.33310000  0.72350000  0.65780000  1
  O  O504  1  0.34210000  0.87970000  0.29720000  1
  O  O505  1  0.37770000  0.65470000  0.74080000  1
  O  O506  1  0.38230000  0.86990000  0.09810000  1
  O  O507  1  0.40320000  0.75200000  0.13320000  1
  O  O508  1  0.45440000  0.87230000  0.16080000  1
  O  O509  1  0.46420000  0.76160000  0.20500000  1
  O  O510  1  0.53580000  0.23840000  0.79500000  1
  O  O511  1  0.54560000  0.12770000  0.83920000  1
  O  O512  1  0.59680000  0.24800000  0.86680000  1
  O  O513  1  0.61770000  0.13010000  0.90190000  1
  O  O514  1  0.62230000  0.34530000  0.25920000  1
  O  O515  1  0.65790000  0.12030000  0.70280000  1
  O  O516  1  0.66690000  0.27650000  0.34220000  1
  O  O517  1  0.68840000  0.20910000  0.72780000  1
  O  O518  1  0.70280000  0.04070000  0.77990000  1
  O  O519  1  0.72010000  0.20440000  0.21830000  1
  O  O520  1  0.72740000  0.38310000  0.22380000  1
  O  O521  1  0.74710000  0.12580000  0.79450000  1
  O  O522  1  0.74780000  0.70980000  0.38190000  1
  O  O523  1  0.76050000  0.28400000  0.13800000  1
  O  O524  1  0.77360000  0.30980000  0.30670000  1
  O  O525  1  0.78060000  0.73390000  0.47050000  1
  O  O526  1  0.79350000  0.79040000  0.30600000  1
  O  O527  1  0.82180000  0.81720000  0.39570000  1
  O  O528  1  0.82290000  0.18130000  0.25280000  1
  O  O529  1  0.86550000  0.26070000  0.17340000  1
  O  O530  1  0.88140000  0.61280000  0.37980000  1
  O  O531  1  0.88740000  0.64950000  0.26450000  1
  O  O532  1  0.94260000  0.68650000  0.38230000  1
  O  O533  1  0.94840000  0.71870000  0.27030000  1
