# generated using pymatgen
data_FeAg2H8(C2N)8
_symmetry_space_group_name_H-M   'P 1'
_cell_length_a   9.57340000
_cell_length_b   15.46934666
_cell_length_c   15.46934666
_cell_angle_alpha   115.85965041
_cell_angle_beta   101.90488029
_cell_angle_gamma   101.90488029
_symmetry_Int_Tables_number   1
_chemical_formula_structural   FeAg2H8(C2N)8
_chemical_formula_sum   'Fe3 Ag6 H24 C48 N24'
_cell_volume   1899.56790207
_cell_formula_units_Z   3
loop_
 _symmetry_equiv_pos_site_id
 _symmetry_equiv_pos_as_xyz
  1  'x, y, z'
loop_
 _atom_site_type_symbol
 _atom_site_label
 _atom_site_symmetry_multiplicity
 _atom_site_fract_x
 _atom_site_fract_y
 _atom_site_fract_z
 _atom_site_occupancy
  Ag  Ag0  1  0.00000000  0.70072000  0.29928000  1
  Ag  Ag1  1  0.00000000  0.29928000  0.70072000  1
  Ag  Ag2  1  0.70072000  0.70072000  0.40144000  1
  Ag  Ag3  1  0.70072000  0.40144000  0.70072000  1
  Ag  Ag4  1  0.29928000  0.59856000  0.29928000  1
  Ag  Ag5  1  0.29928000  0.29928000  0.59856000  1
  C  C6  1  0.79250000  0.59850000  0.42130000  1
  C  C7  1  0.79250000  0.42130000  0.59850000  1
  C  C8  1  0.36235000  0.00000000  0.08585000  1
  C  C9  1  0.36235000  0.08585000  1.00000000  1
  C  C10  1  0.36879000  0.90853000  0.18494000  1
  C  C11  1  0.36879000  0.18494000  0.90853000  1
  C  C12  1  0.72350000  0.08585000  0.08585000  1
  C  C13  1  0.39815000  1.00000000  0.18425000  1
  C  C14  1  0.39815000  0.18425000  0.00000000  1
  C  C15  1  0.40294000  0.91206000  0.27816000  1
  C  C16  1  0.40294000  0.27816000  0.91206000  1
  C  C17  1  0.19400000  0.82280000  0.40150000  1
  C  C18  1  0.19400000  0.40150000  0.82280000  1
  C  C19  1  0.62880000  0.82280000  0.42130000  1
  C  C20  1  0.62880000  0.42130000  0.82280000  1
  C  C21  1  0.12478000  0.72184000  0.63390000  1
  C  C22  1  0.12478000  0.63390000  0.72184000  1
  C  C23  1  0.46026000  0.09147000  0.27641000  1
  C  C24  1  0.46026000  0.27641000  0.09147000  1
  C  C25  1  0.78610000  0.18425000  0.18425000  1
  C  C26  1  0.49088000  0.08794000  0.36610000  1
  C  C27  1  0.49088000  0.36610000  0.08794000  1
  C  C28  1  0.81615000  0.27641000  0.18494000  1
  C  C29  1  0.81615000  0.18494000  0.27641000  1
  C  C30  1  0.18385000  0.81506000  0.72359000  1
  C  C31  1  0.18385000  0.72359000  0.81506000  1
  C  C32  1  0.50912000  0.91206000  0.63390000  1
  C  C33  1  0.50912000  0.63390000  0.91206000  1
  C  C34  1  0.21390000  0.81575000  0.81575000  1
  C  C35  1  0.53974000  0.90853000  0.72359000  1
  C  C36  1  0.53974000  0.72359000  0.90853000  1
  C  C37  1  0.87522000  0.36610000  0.27816000  1
  C  C38  1  0.87522000  0.27816000  0.36610000  1
  C  C39  1  0.37120000  0.17720000  0.57870000  1
  C  C40  1  0.37120000  0.57870000  0.17720000  1
  C  C41  1  0.80600000  0.17720000  0.59850000  1
  C  C42  1  0.80600000  0.59850000  0.17720000  1
  C  C43  1  0.59706000  0.08794000  0.72184000  1
  C  C44  1  0.59706000  0.72184000  0.08794000  1
  C  C45  1  0.60185000  1.00000000  0.81575000  1
  C  C46  1  0.60185000  0.81575000  1.00000000  1
  C  C47  1  0.27650000  0.91415000  0.91415000  1
  C  C48  1  0.63121000  0.09147000  0.81506000  1
  C  C49  1  0.63121000  0.81506000  0.09147000  1
  C  C50  1  0.63765000  0.00000000  0.91415000  1
  C  C51  1  0.63765000  0.91415000  1.00000000  1
  C  C52  1  0.20750000  0.57870000  0.40150000  1
  C  C53  1  0.20750000  0.40150000  0.57870000  1
  Fe  Fe54  1  0.00000000  0.50000000  0.50000000  1
  Fe  Fe55  1  0.50000000  1.00000000  0.50000000  1
  Fe  Fe56  1  0.50000000  0.50000000  1.00000000  1
  H  H57  1  0.67270000  0.87580000  0.15370000  1
  H  H58  1  0.67270000  0.15370000  0.87580000  1
  H  H59  1  0.38440000  0.85090000  0.27860000  1
  H  H60  1  0.38440000  0.27860000  0.85090000  1
  H  H61  1  0.10580000  0.72140000  0.57230000  1
  H  H62  1  0.10580000  0.57230000  0.72140000  1
  H  H63  1  0.79690000  0.12420000  0.27790000  1
  H  H64  1  0.79690000  0.27790000  0.12420000  1
  H  H65  1  0.46650000  0.85090000  0.57230000  1
  H  H66  1  0.46650000  0.57230000  0.85090000  1
  H  H67  1  0.48100000  0.27790000  0.15370000  1
  H  H68  1  0.48100000  0.15370000  0.27790000  1
  H  H69  1  0.51900000  0.84630000  0.72210000  1
  H  H70  1  0.51900000  0.72210000  0.84630000  1
  H  H71  1  0.53350000  0.14910000  0.42770000  1
  H  H72  1  0.53350000  0.42770000  0.14910000  1
  H  H73  1  0.20310000  0.87580000  0.72210000  1
  H  H74  1  0.20310000  0.72210000  0.87580000  1
  H  H75  1  0.89420000  0.42770000  0.27860000  1
  H  H76  1  0.89420000  0.27860000  0.42770000  1
  H  H77  1  0.61560000  0.14910000  0.72140000  1
  H  H78  1  0.61560000  0.72140000  0.14910000  1
  H  H79  1  0.32730000  0.12420000  0.84630000  1
  H  H80  1  0.32730000  0.84630000  0.12420000  1
  N  N81  1  0.86025000  0.55589000  0.44876000  1
  N  N82  1  0.86025000  0.44876000  0.55589000  1
  N  N83  1  0.69605000  1.00000000  0.09115000  1
  N  N84  1  0.69605000  0.09115000  0.00000000  1
  N  N85  1  0.39510000  0.09115000  0.09115000  1
  N  N86  1  0.09330000  0.63155000  0.63155000  1
  N  N87  1  0.30436000  0.89287000  0.44411000  1
  N  N88  1  0.30436000  0.44411000  0.89287000  1
  N  N89  1  0.58851000  0.89287000  0.44876000  1
  N  N90  1  0.58851000  0.44876000  0.89287000  1
  N  N91  1  0.46175000  1.00000000  0.36845000  1
  N  N92  1  0.46175000  0.36845000  0.00000000  1
  N  N93  1  0.53825000  1.00000000  0.63155000  1
  N  N94  1  0.53825000  0.63155000  1.00000000  1
  N  N95  1  0.41149000  0.10713000  0.55124000  1
  N  N96  1  0.41149000  0.55124000  0.10713000  1
  N  N97  1  0.69564000  0.10713000  0.55589000  1
  N  N98  1  0.69564000  0.55589000  0.10713000  1
  N  N99  1  0.90670000  0.36845000  0.36845000  1
  N  N100  1  0.60490000  0.90885000  0.90885000  1
  N  N101  1  0.30395000  0.00000000  0.90885000  1
  N  N102  1  0.30395000  0.90885000  1.00000000  1
  N  N103  1  0.13975000  0.55124000  0.44411000  1
  N  N104  1  0.13975000  0.44411000  0.55124000  1
