# generated using pymatgen
data_VGa2(PO4)3
_symmetry_space_group_name_H-M   'P 1'
_cell_length_a   9.09700000
_cell_length_b   9.64410000
_cell_length_c   16.99400000
_cell_angle_alpha   90.00000000
_cell_angle_beta   90.00000000
_cell_angle_gamma   103.45600000
_symmetry_Int_Tables_number   1
_chemical_formula_structural   VGa2(PO4)3
_chemical_formula_sum   'V4 Ga8 P12 O48'
_cell_volume   1449.99653227
_cell_formula_units_Z   4
loop_
 _symmetry_equiv_pos_site_id
 _symmetry_equiv_pos_as_xyz
  1  'x, y, z'
loop_
 _atom_site_type_symbol
 _atom_site_label
 _atom_site_symmetry_multiplicity
 _atom_site_fract_x
 _atom_site_fract_y
 _atom_site_fract_z
 _atom_site_occupancy
  V  V0  1  0.68560000  0.83466000  0.99683000  1
  V  V1  1  0.68560000  0.33466000  0.50317000  1
  V  V2  1  0.31440000  0.66534000  0.49683000  1
  V  V3  1  0.31440000  0.16534000  0.00317000  1
  Ga  Ga4  1  0.79741000  0.07593000  0.77657000  1
  Ga  Ga5  1  0.79741000  0.57593000  0.72343000  1
  Ga  Ga6  1  0.78406000  0.53667000  0.26570000  1
  Ga  Ga7  1  0.78406000  0.03667000  0.23430000  1
  Ga  Ga8  1  0.21594000  0.96333000  0.76570000  1
  Ga  Ga9  1  0.21594000  0.46333000  0.73430000  1
  Ga  Ga10  1  0.20259000  0.42407000  0.27657000  1
  Ga  Ga11  1  0.20259000  0.92407000  0.22343000  1
  P  P12  1  0.89271000  0.81460000  0.83772000  1
  P  P13  1  0.89271000  0.31460000  0.66228000  1
  P  P14  1  0.89083000  0.28599000  0.34511000  1
  P  P15  1  0.89083000  0.78599000  0.15489000  1
  P  P16  1  0.50063000  0.49187000  0.37034000  1
  P  P17  1  0.50063000  0.99187000  0.12966000  1
  P  P18  1  0.49937000  0.00813000  0.87034000  1
  P  P19  1  0.49937000  0.50813000  0.62966000  1
  P  P20  1  0.10917000  0.21401000  0.84511000  1
  P  P21  1  0.10917000  0.71401000  0.65489000  1
  P  P22  1  0.10729000  0.68540000  0.33772000  1
  P  P23  1  0.10729000  0.18540000  0.16228000  1
  O  O24  1  0.93510000  0.64750000  0.33200000  1
  O  O25  1  0.93510000  0.14750000  0.16800000  1
  O  O26  1  0.93490000  0.18020000  0.84560000  1
  O  O27  1  0.93490000  0.68020000  0.65440000  1
  O  O28  1  0.85140000  0.84930000  0.91960000  1
  O  O29  1  0.85140000  0.34930000  0.58040000  1
  O  O30  1  0.84350000  0.32400000  0.42500000  1
  O  O31  1  0.84350000  0.82400000  0.07500000  1
  O  O32  1  0.83570000  0.36670000  0.27760000  1
  O  O33  1  0.83570000  0.86670000  0.22240000  1
  O  O34  1  0.83260000  0.65550000  0.82110000  1
  O  O35  1  0.83260000  0.15550000  0.67890000  1
  O  O36  1  0.83180000  0.12650000  0.32910000  1
  O  O37  1  0.83180000  0.62650000  0.17090000  1
  O  O38  1  0.82450000  0.89550000  0.77400000  1
  O  O39  1  0.82450000  0.39550000  0.72600000  1
  O  O40  1  0.62690000  0.58260000  0.31840000  1
  O  O41  1  0.62690000  0.08260000  0.18160000  1
  O  O42  1  0.61850000  0.09780000  0.81380000  1
  O  O43  1  0.61850000  0.59780000  0.68620000  1
  O  O44  1  0.56540000  0.90560000  0.91670000  1
  O  O45  1  0.56540000  0.40560000  0.58330000  1
  O  O46  1  0.56090000  0.38470000  0.41720000  1
  O  O47  1  0.56090000  0.88470000  0.08280000  1
  O  O48  1  0.43910000  0.11530000  0.91720000  1
  O  O49  1  0.43910000  0.61530000  0.58280000  1
  O  O50  1  0.43460000  0.59440000  0.41670000  1
  O  O51  1  0.43460000  0.09440000  0.08330000  1
  O  O52  1  0.38150000  0.40220000  0.31380000  1
  O  O53  1  0.38150000  0.90220000  0.18620000  1
  O  O54  1  0.37310000  0.91740000  0.81840000  1
  O  O55  1  0.37310000  0.41740000  0.68160000  1
  O  O56  1  0.17550000  0.60450000  0.27400000  1
  O  O57  1  0.17550000  0.10450000  0.22600000  1
  O  O58  1  0.16820000  0.37350000  0.82910000  1
  O  O59  1  0.16820000  0.87350000  0.67090000  1
  O  O60  1  0.16740000  0.84450000  0.32110000  1
  O  O61  1  0.16740000  0.34450000  0.17890000  1
  O  O62  1  0.16430000  0.13330000  0.77760000  1
  O  O63  1  0.16430000  0.63330000  0.72240000  1
  O  O64  1  0.15650000  0.17600000  0.92500000  1
  O  O65  1  0.15650000  0.67600000  0.57500000  1
  O  O66  1  0.14860000  0.65070000  0.41960000  1
  O  O67  1  0.14860000  0.15070000  0.08040000  1
  O  O68  1  0.06510000  0.31980000  0.34560000  1
  O  O69  1  0.06510000  0.81980000  0.15440000  1
  O  O70  1  0.06490000  0.85250000  0.83200000  1
  O  O71  1  0.06490000  0.35250000  0.66800000  1
