# generated using pymatgen
data_Li3Co8C48(N3O4)12
_symmetry_space_group_name_H-M   'P 1'
_cell_length_a   17.69720000
_cell_length_b   17.69720000
_cell_length_c   27.43897122
_cell_angle_alpha   71.18685102
_cell_angle_beta   71.18685102
_cell_angle_gamma   60.00000000
_symmetry_Int_Tables_number   1
_chemical_formula_structural   Li3Co8C48(N3O4)12
_chemical_formula_sum   'Li6 Co16 C96 N72 O96'
_cell_volume   6907.08498670
_cell_formula_units_Z   2
loop_
 _symmetry_equiv_pos_site_id
 _symmetry_equiv_pos_as_xyz
  1  'x, y, z'
loop_
 _atom_site_type_symbol
 _atom_site_label
 _atom_site_symmetry_multiplicity
 _atom_site_fract_x
 _atom_site_fract_y
 _atom_site_fract_z
 _atom_site_occupancy
  C  C0  1  0.70778000  0.51998000  0.65546000  1
  C  C1  1  0.01998000  0.20778000  0.15546000  1
  C  C2  1  0.99347000  0.60507000  0.09789000  1
  C  C3  1  0.10507000  0.49347000  0.59789000  1
  C  C4  1  0.20526000  0.82056000  0.44942000  1
  C  C5  1  0.32056000  0.70526000  0.94942000  1
  C  C6  1  0.91144000  0.72614000  0.02028000  1
  C  C7  1  0.22614000  0.41144000  0.52028000  1
  C  C8  1  0.82056000  0.52476000  0.44942000  1
  C  C9  1  0.02476000  0.32056000  0.94942000  1
  C  C10  1  0.91469000  0.21829000  0.76183000  1
  C  C11  1  0.71829000  0.41469000  0.26183000  1
  C  C12  1  0.60507000  0.30357000  0.09789000  1
  C  C13  1  0.80357000  0.10507000  0.59789000  1
  C  C14  1  0.50653000  0.19643000  0.40211000  1
  C  C15  1  0.69643000  0.00653000  0.90211000  1
  C  C16  1  0.26682000  0.57802000  0.68924000  1
  C  C17  1  0.07802000  0.76682000  0.18924000  1
  C  C18  1  0.29474000  0.97524000  0.05058000  1
  C  C19  1  0.47524000  0.79474000  0.55058000  1
  C  C20  1  0.20367000  0.62547000  0.65789000  1
  C  C21  1  0.12547000  0.70367000  0.15789000  1
  C  C22  1  0.34214000  0.91144000  0.02028000  1
  C  C23  1  0.41144000  0.84214000  0.52028000  1
  C  C24  1  0.11678000  0.70778000  0.65546000  1
  C  C25  1  0.20778000  0.61678000  0.15546000  1
  C  C26  1  0.42515000  0.82445000  0.01635000  1
  C  C27  1  0.32445000  0.92515000  0.51635000  1
  C  C28  1  0.38322000  0.98002000  0.84454000  1
  C  C29  1  0.48002000  0.88322000  0.34454000  1
  C  C30  1  0.15786000  0.77386000  0.47972000  1
  C  C31  1  0.27386000  0.65786000  0.97972000  1
  C  C32  1  0.62547000  0.51297000  0.65789000  1
  C  C33  1  0.01297000  0.12547000  0.15789000  1
  C  C34  1  0.82445000  0.73405000  0.01635000  1
  C  C35  1  0.23405000  0.32445000  0.51635000  1
  C  C36  1  0.41469000  0.60519000  0.26183000  1
  C  C37  1  0.10519000  0.91469000  0.76183000  1
  C  C38  1  0.76682000  0.96592000  0.18924000  1
  C  C39  1  0.46592000  0.26682000  0.68924000  1
  C  C40  1  0.29633000  0.98703000  0.84211000  1
  C  C41  1  0.48703000  0.79633000  0.34211000  1
  C  C42  1  0.92515000  0.23405000  0.51635000  1
  C  C43  1  0.57802000  0.46592000  0.68924000  1
  C  C44  1  0.96592000  0.07802000  0.18924000  1
  C  C45  1  0.73405000  0.42515000  0.01635000  1
  C  C46  1  0.39481000  0.28171000  0.73817000  1
  C  C47  1  0.78171000  0.89481000  0.23817000  1
  C  C48  1  0.21829000  0.10519000  0.76183000  1
  C  C49  1  0.60519000  0.71829000  0.26183000  1
  C  C50  1  0.03408000  0.92198000  0.81076000  1
  C  C51  1  0.42198000  0.53408000  0.31076000  1
  C  C52  1  0.07485000  0.76595000  0.48365000  1
  C  C53  1  0.26595000  0.57485000  0.98365000  1
  C  C54  1  0.70367000  0.01297000  0.15789000  1
  C  C55  1  0.51297000  0.20367000  0.65789000  1
  C  C56  1  0.23318000  0.03408000  0.81076000  1
  C  C57  1  0.53408000  0.73318000  0.31076000  1
  C  C58  1  0.58531000  0.39481000  0.73817000  1
  C  C59  1  0.89481000  0.08531000  0.23817000  1
  C  C60  1  0.76595000  0.67555000  0.48365000  1
  C  C61  1  0.17555000  0.26595000  0.98365000  1
  C  C62  1  0.98703000  0.87453000  0.84211000  1
  C  C63  1  0.37453000  0.48703000  0.34211000  1
  C  C64  1  0.84214000  0.22614000  0.52028000  1
  C  C65  1  0.72614000  0.34214000  0.02028000  1
  C  C66  1  0.61678000  0.01998000  0.15546000  1
  C  C67  1  0.51998000  0.11678000  0.65546000  1
  C  C68  1  0.57485000  0.17555000  0.98365000  1
  C  C69  1  0.67555000  0.07485000  0.48365000  1
  C  C70  1  0.88322000  0.29222000  0.34454000  1
  C  C71  1  0.79222000  0.38322000  0.84454000  1
  C  C72  1  0.65786000  0.08856000  0.97972000  1
  C  C73  1  0.58856000  0.15786000  0.47972000  1
  C  C74  1  0.79633000  0.37453000  0.34211000  1
  C  C75  1  0.87453000  0.29633000  0.84211000  1
  C  C76  1  0.70526000  0.02476000  0.94942000  1
  C  C77  1  0.52476000  0.20526000  0.44942000  1
  C  C78  1  0.73318000  0.42198000  0.31076000  1
  C  C79  1  0.92198000  0.23318000  0.81076000  1
  C  C80  1  0.49347000  0.80357000  0.59789000  1
  C  C81  1  0.30357000  0.99347000  0.09789000  1
  C  C82  1  0.19643000  0.89493000  0.40211000  1
  C  C83  1  0.39493000  0.69643000  0.90211000  1
  C  C84  1  0.08531000  0.78171000  0.23817000  1
  C  C85  1  0.28171000  0.58531000  0.73817000  1
  C  C86  1  0.97524000  0.67944000  0.05058000  1
  C  C87  1  0.17944000  0.47524000  0.55058000  1
  C  C88  1  0.77386000  0.58856000  0.47972000  1
  C  C89  1  0.08856000  0.27386000  0.97972000  1
  C  C90  1  0.79474000  0.17944000  0.55058000  1
  C  C91  1  0.67944000  0.29474000  0.05058000  1
  C  C92  1  0.00653000  0.39493000  0.90211000  1
  C  C93  1  0.89493000  0.50653000  0.40211000  1
  C  C94  1  0.98002000  0.79222000  0.84454000  1
  C  C95  1  0.29222000  0.48002000  0.34454000  1
  Co  Co96  1  0.06880333  0.06880333  0.79359000  1
  Co  Co97  1  0.43119667  0.43119667  0.70641000  1
  Co  Co98  1  0.56880333  0.56880333  0.29359000  1
  Co  Co99  1  0.93119667  0.93119667  0.20641000  1
  Co  Co100  1  0.14504333  0.13726333  0.06848000  1
  Co  Co101  1  0.63726333  0.64504333  0.56848000  1
  Co  Co102  1  0.64921333  0.14504333  0.06848000  1
  Co  Co103  1  0.64504333  0.14921333  0.56848000  1
  Co  Co104  1  0.85078667  0.36273667  0.43152000  1
  Co  Co105  1  0.86273667  0.35078667  0.93152000  1
  Co  Co106  1  0.14921333  0.63726333  0.56848000  1
  Co  Co107  1  0.13726333  0.64921333  0.06848000  1
  Co  Co108  1  0.35078667  0.85495667  0.93152000  1
  Co  Co109  1  0.35495667  0.85078667  0.43152000  1
  Co  Co110  1  0.36273667  0.35495667  0.43152000  1
  Co  Co111  1  0.85495667  0.86273667  0.93152000  1
  Li  Li112  1  0.38215000  0.11785000  0.75000000  1
  Li  Li113  1  0.61785000  0.88215000  0.25000000  1
  Li  Li114  1  0.75000000  0.38215000  0.75000000  1
  Li  Li115  1  0.88215000  0.25000000  0.25000000  1
  Li  Li116  1  0.25000000  0.61785000  0.25000000  1
  Li  Li117  1  0.11785000  0.75000000  0.75000000  1
  N  N118  1  0.77078000  0.22538000  0.98656000  1
  N  N119  1  0.72538000  0.27078000  0.48656000  1
  N  N120  1  0.71706000  0.55896000  0.51902000  1
  N  N121  1  0.05896000  0.21706000  0.01902000  1
  N  N122  1  0.70972000  0.22422000  0.02814000  1
  N  N123  1  0.72422000  0.20972000  0.52814000  1
  N  N124  1  0.80729000  0.05999000  0.12633000  1
  N  N125  1  0.55999000  0.30729000  0.62633000  1
  N  N126  1  0.32799000  0.50749000  0.66833000  1
  N  N127  1  0.00749000  0.82799000  0.16833000  1
  N  N128  1  0.22422000  0.03792000  0.02814000  1
  N  N129  1  0.53792000  0.72422000  0.52814000  1
  N  N130  1  0.82799000  0.99619000  0.16833000  1
  N  N131  1  0.49619000  0.32799000  0.66833000  1
  N  N132  1  0.20496000  0.71706000  0.51902000  1
  N  N133  1  0.21706000  0.70496000  0.01902000  1
  N  N134  1  0.22538000  0.01728000  0.98656000  1
  N  N135  1  0.51728000  0.72538000  0.48656000  1
  N  N136  1  0.79028000  0.46208000  0.47186000  1
  N  N137  1  0.96208000  0.29028000  0.97186000  1
  N  N138  1  0.30729000  0.50639000  0.62633000  1
  N  N139  1  0.00639000  0.80729000  0.12633000  1
  N  N140  1  0.57751000  0.57041000  0.62057000  1
  N  N141  1  0.07041000  0.07751000  0.12057000  1
  N  N142  1  0.29504000  0.94104000  0.98098000  1
  N  N143  1  0.44104000  0.79504000  0.48098000  1
  N  N144  1  0.23151000  0.57751000  0.62057000  1
  N  N145  1  0.07751000  0.73151000  0.12057000  1
  N  N146  1  0.72922000  0.48272000  0.51344000  1
  N  N147  1  0.98272000  0.22922000  0.01344000  1
  N  N148  1  0.00381000  0.99251000  0.83167000  1
  N  N149  1  0.49251000  0.50381000  0.33167000  1
  N  N150  1  0.73151000  0.07041000  0.12057000  1
  N  N151  1  0.57041000  0.23151000  0.62057000  1
  N  N152  1  0.49361000  0.44001000  0.37367000  1
  N  N153  1  0.94001000  0.99361000  0.87367000  1
  N  N154  1  0.05999000  0.00639000  0.12633000  1
  N  N155  1  0.50639000  0.55999000  0.62633000  1
  N  N156  1  0.26849000  0.92959000  0.87943000  1
  N  N157  1  0.42959000  0.76849000  0.37943000  1
  N  N158  1  0.50749000  0.49619000  0.66833000  1
  N  N159  1  0.99619000  0.00749000  0.16833000  1
  N  N160  1  0.27078000  0.51728000  0.48656000  1
  N  N161  1  0.01728000  0.77078000  0.98656000  1
  N  N162  1  0.76849000  0.42249000  0.37943000  1
  N  N163  1  0.92249000  0.26849000  0.87943000  1
  N  N164  1  0.70496000  0.05896000  0.01902000  1
  N  N165  1  0.55896000  0.20496000  0.51902000  1
  N  N166  1  0.92959000  0.92249000  0.87943000  1
  N  N167  1  0.42249000  0.42959000  0.37943000  1
  N  N168  1  0.69271000  0.49361000  0.37367000  1
  N  N169  1  0.99361000  0.19271000  0.87367000  1
  N  N170  1  0.20972000  0.53792000  0.52814000  1
  N  N171  1  0.03792000  0.70972000  0.02814000  1
  N  N172  1  0.48272000  0.27462000  0.51344000  1
  N  N173  1  0.77462000  0.98272000  0.01344000  1
  N  N174  1  0.79504000  0.28294000  0.48098000  1
  N  N175  1  0.78294000  0.29504000  0.98098000  1
  N  N176  1  0.17201000  0.00381000  0.83167000  1
  N  N177  1  0.50381000  0.67201000  0.33167000  1
  N  N178  1  0.46208000  0.27578000  0.47186000  1
  N  N179  1  0.77578000  0.96208000  0.97186000  1
  N  N180  1  0.67201000  0.49251000  0.33167000  1
  N  N181  1  0.99251000  0.17201000  0.83167000  1
  N  N182  1  0.19271000  0.94001000  0.87367000  1
  N  N183  1  0.44001000  0.69271000  0.37367000  1
  N  N184  1  0.29028000  0.77578000  0.97186000  1
  N  N185  1  0.27578000  0.79028000  0.47186000  1
  N  N186  1  0.94104000  0.78294000  0.98098000  1
  N  N187  1  0.28294000  0.44104000  0.48098000  1
  N  N188  1  0.22922000  0.77462000  0.01344000  1
  N  N189  1  0.27462000  0.72922000  0.51344000  1
  O  O190  1  0.41608000  0.02788000  0.81076000  1
  O  O191  1  0.52788000  0.91608000  0.31076000  1
  O  O192  1  0.13377000  0.92667000  0.38009000  1
  O  O193  1  0.42667000  0.63377000  0.88009000  1
  O  O194  1  0.02788000  0.74528000  0.81076000  1
  O  O195  1  0.24528000  0.52788000  0.31076000  1
  O  O196  1  0.08392000  0.75472000  0.68924000  1
  O  O197  1  0.25472000  0.58392000  0.18924000  1
  O  O198  1  0.47098000  0.79238000  0.04926000  1
  O  O199  1  0.29238000  0.97098000  0.54926000  1
  O  O200  1  0.97688000  0.14638000  0.74836000  1
  O  O201  1  0.64638000  0.47688000  0.24836000  1
  O  O202  1  0.92327000  0.77577000  0.88249000  1
  O  O203  1  0.27577000  0.42327000  0.38249000  1
  O  O204  1  0.43420000  0.25860000  0.38870000  1
  O  O205  1  0.75860000  0.93420000  0.88870000  1
  O  O206  1  0.85301000  0.27251000  0.73927000  1
  O  O207  1  0.77251000  0.35301000  0.23927000  1
  O  O208  1  0.55947000  0.13377000  0.38009000  1
  O  O209  1  0.63377000  0.05947000  0.88009000  1
  O  O210  1  0.91850000  0.43420000  0.38870000  1
  O  O211  1  0.93420000  0.41850000  0.88870000  1
  O  O212  1  0.47688000  0.62838000  0.24836000  1
  O  O213  1  0.12838000  0.97688000  0.74836000  1
  O  O214  1  0.41847000  0.92327000  0.88249000  1
  O  O215  1  0.42327000  0.91847000  0.38249000  1
  O  O216  1  0.94053000  0.57333000  0.11991000  1
  O  O217  1  0.07333000  0.44053000  0.61991000  1
  O  O218  1  0.27251000  0.13521000  0.73927000  1
  O  O219  1  0.63521000  0.77251000  0.23927000  1
  O  O220  1  0.79200000  0.78920000  0.97750000  1
  O  O221  1  0.28920000  0.29200000  0.47750000  1
  O  O222  1  0.58150000  0.24140000  0.11130000  1
  O  O223  1  0.74140000  0.08150000  0.61130000  1
  O  O224  1  0.37162000  0.35362000  0.75164000  1
  O  O225  1  0.85362000  0.87162000  0.25164000  1
  O  O226  1  0.44130000  0.79200000  0.97750000  1
  O  O227  1  0.29200000  0.94130000  0.47750000  1
  O  O228  1  0.08153000  0.72423000  0.61751000  1
  O  O229  1  0.22423000  0.58153000  0.11751000  1
  O  O230  1  0.94130000  0.28920000  0.47750000  1
  O  O231  1  0.78920000  0.44130000  0.97750000  1
  O  O232  1  0.97098000  0.18738000  0.54926000  1
  O  O233  1  0.68738000  0.47098000  0.04926000  1
  O  O234  1  0.64699000  0.36479000  0.76073000  1
  O  O235  1  0.86479000  0.14699000  0.26073000  1
  O  O236  1  0.79238000  0.68738000  0.04926000  1
  O  O237  1  0.18738000  0.29238000  0.54926000  1
  O  O238  1  0.81262000  0.70762000  0.45074000  1
  O  O239  1  0.20762000  0.31262000  0.95074000  1
  O  O240  1  0.35301000  0.63521000  0.23927000  1
  O  O241  1  0.13521000  0.85301000  0.73927000  1
  O  O242  1  0.02902000  0.81262000  0.45074000  1
  O  O243  1  0.31262000  0.52902000  0.95074000  1
  O  O244  1  0.05870000  0.71080000  0.52250000  1
  O  O245  1  0.21080000  0.55870000  0.02250000  1
  O  O246  1  0.91847000  0.27577000  0.38249000  1
  O  O247  1  0.77577000  0.41847000  0.88249000  1
  O  O248  1  0.55870000  0.20800000  0.02250000  1
  O  O249  1  0.70800000  0.05870000  0.52250000  1
  O  O250  1  0.14638000  0.12838000  0.74836000  1
  O  O251  1  0.62838000  0.64638000  0.24836000  1
  O  O252  1  0.41850000  0.75860000  0.88870000  1
  O  O253  1  0.25860000  0.91850000  0.38870000  1
  O  O254  1  0.71080000  0.70800000  0.52250000  1
  O  O255  1  0.20800000  0.21080000  0.02250000  1
  O  O256  1  0.36479000  0.22749000  0.76073000  1
  O  O257  1  0.72749000  0.86479000  0.26073000  1
  O  O258  1  0.05947000  0.42667000  0.88009000  1
  O  O259  1  0.92667000  0.55947000  0.38009000  1
  O  O260  1  0.58153000  0.07673000  0.11751000  1
  O  O261  1  0.57673000  0.08153000  0.61751000  1
  O  O262  1  0.52312000  0.37162000  0.75164000  1
  O  O263  1  0.87162000  0.02312000  0.25164000  1
  O  O264  1  0.08150000  0.56580000  0.61130000  1
  O  O265  1  0.06580000  0.58150000  0.11130000  1
  O  O266  1  0.44053000  0.86623000  0.61991000  1
  O  O267  1  0.36623000  0.94053000  0.11991000  1
  O  O268  1  0.14699000  0.72749000  0.26073000  1
  O  O269  1  0.22749000  0.64699000  0.76073000  1
  O  O270  1  0.24140000  0.06580000  0.11130000  1
  O  O271  1  0.56580000  0.74140000  0.61130000  1
  O  O272  1  0.72423000  0.57673000  0.61751000  1
  O  O273  1  0.07673000  0.22423000  0.11751000  1
  O  O274  1  0.02312000  0.85362000  0.25164000  1
  O  O275  1  0.35362000  0.52312000  0.75164000  1
  O  O276  1  0.52902000  0.20762000  0.95074000  1
  O  O277  1  0.70762000  0.02902000  0.45074000  1
  O  O278  1  0.91608000  0.24528000  0.31076000  1
  O  O279  1  0.74528000  0.41608000  0.81076000  1
  O  O280  1  0.75472000  0.47212000  0.68924000  1
  O  O281  1  0.97212000  0.25472000  0.18924000  1
  O  O282  1  0.57333000  0.36623000  0.11991000  1
  O  O283  1  0.86623000  0.07333000  0.61991000  1
  O  O284  1  0.58392000  0.97212000  0.18924000  1
  O  O285  1  0.47212000  0.08392000  0.68924000  1
