# generated using pymatgen
data_Cd(C2N3)3
_symmetry_space_group_name_H-M   'P 1'
_cell_length_a   14.90110315
_cell_length_b   14.90110315
_cell_length_c   14.90110315
_cell_angle_alpha   107.74931712
_cell_angle_beta   109.26535213
_cell_angle_gamma   111.42010418
_symmetry_Int_Tables_number   1
_chemical_formula_structural   Cd(C2N3)3
_chemical_formula_sum   'Cd4 C24 N36'
_cell_volume   2544.37758750
_cell_formula_units_Z   4
loop_
 _symmetry_equiv_pos_site_id
 _symmetry_equiv_pos_as_xyz
  1  'x, y, z'
loop_
 _atom_site_type_symbol
 _atom_site_label
 _atom_site_symmetry_multiplicity
 _atom_site_fract_x
 _atom_site_fract_y
 _atom_site_fract_z
 _atom_site_occupancy
  C  C0  1  0.50960000  0.22680000  0.73640000  1
  C  C1  1  0.00960000  0.27320000  0.28280000  1
  C  C2  1  0.09930000  0.80560000  0.90490000  1
  C  C3  1  0.59930000  0.69440000  0.29370000  1
  C  C4  1  0.70100000  0.40580000  0.10680000  1
  C  C5  1  0.20100000  0.09420000  0.29520000  1
  C  C6  1  0.50840000  0.02130000  0.93030000  1
  C  C7  1  0.90900000  0.42190000  0.93030000  1
  C  C8  1  0.40900000  0.47870000  0.48710000  1
  C  C9  1  0.00840000  0.07810000  0.48710000  1
  C  C10  1  0.73840000  0.02350000  0.76190000  1
  C  C11  1  0.23840000  0.47650000  0.71490000  1
  C  C12  1  0.26160000  0.97650000  0.23810000  1
  C  C13  1  0.76160000  0.52350000  0.28510000  1
  C  C14  1  0.49160000  0.97870000  0.06970000  1
  C  C15  1  0.09100000  0.57810000  0.06970000  1
  C  C16  1  0.59100000  0.52130000  0.51290000  1
  C  C17  1  0.99160000  0.92190000  0.51290000  1
  C  C18  1  0.29900000  0.59420000  0.89320000  1
  C  C19  1  0.79900000  0.90580000  0.70480000  1
  C  C20  1  0.90070000  0.19440000  0.09510000  1
  C  C21  1  0.40070000  0.30560000  0.70630000  1
  C  C22  1  0.49040000  0.77320000  0.26360000  1
  C  C23  1  0.99040000  0.72680000  0.71720000  1
  Cd  Cd24  1  0.70374000  0.21198000  0.91572000  1
  Cd  Cd25  1  0.20374000  0.28802000  0.49176000  1
  Cd  Cd26  1  0.29626000  0.78802000  0.08428000  1
  Cd  Cd27  1  0.79626000  0.71198000  0.50824000  1
  N  N28  1  0.02360000  0.79530000  0.81890000  1
  N  N29  1  0.52360000  0.70470000  0.22830000  1
  N  N30  1  0.56810000  0.19290000  0.76100000  1
  N  N31  1  0.06810000  0.30710000  0.37520000  1
  N  N32  1  0.16260000  0.78720000  0.94980000  1
  N  N33  1  0.66260000  0.71280000  0.37540000  1
  N  N34  1  0.55900000  0.07070000  0.89810000  1
  N  N35  1  0.82740000  0.33910000  0.89810000  1
  N  N36  1  0.32740000  0.42930000  0.48830000  1
  N  N37  1  0.05900000  0.16090000  0.48830000  1
  N  N38  1  0.69920000  0.48010000  0.17930000  1
  N  N39  1  0.19920000  0.01990000  0.21910000  1
  N  N40  1  0.70060000  0.34270000  0.04330000  1
  N  N41  1  0.20060000  0.15730000  0.35790000  1
  N  N42  1  0.70100000  0.07720000  0.77820000  1
  N  N43  1  0.20100000  0.42280000  0.62380000  1
  N  N44  1  0.50000000  0.00000000  0.00000000  1
  N  N45  1  1.00000000  0.50000000  0.00000000  1
  N  N46  1  0.50000000  0.50000000  0.50000000  1
  N  N47  1  1.00000000  1.00000000  0.50000000  1
  N  N48  1  0.29900000  0.92280000  0.22180000  1
  N  N49  1  0.79900000  0.57720000  0.37620000  1
  N  N50  1  0.29940000  0.65730000  0.95670000  1
  N  N51  1  0.79940000  0.84270000  0.64210000  1
  N  N52  1  0.30080000  0.51990000  0.82070000  1
  N  N53  1  0.80080000  0.98010000  0.78090000  1
  N  N54  1  0.44100000  0.92930000  0.10190000  1
  N  N55  1  0.17260000  0.66090000  0.10190000  1
  N  N56  1  0.67260000  0.57070000  0.51170000  1
  N  N57  1  0.94100000  0.83910000  0.51170000  1
  N  N58  1  0.83740000  0.21280000  0.05020000  1
  N  N59  1  0.33740000  0.28720000  0.62460000  1
  N  N60  1  0.43190000  0.80710000  0.23900000  1
  N  N61  1  0.93190000  0.69290000  0.62480000  1
  N  N62  1  0.97640000  0.20470000  0.18110000  1
  N  N63  1  0.47640000  0.29530000  0.77170000  1
