# generated using pymatgen
data_K2MgRu2(CO3)4
_symmetry_space_group_name_H-M   'P 1'
_cell_length_a   9.36700000
_cell_length_b   10.05900000
_cell_length_c   18.46500000
_cell_angle_alpha   90.00000000
_cell_angle_beta   90.00000000
_cell_angle_gamma   90.00000000
_symmetry_Int_Tables_number   1
_chemical_formula_structural   K2MgRu2(CO3)4
_chemical_formula_sum   'K8 Mg4 Ru8 C16 O48'
_cell_volume   1739.82128765
_cell_formula_units_Z   4
loop_
 _symmetry_equiv_pos_site_id
 _symmetry_equiv_pos_as_xyz
  1  'x, y, z'
loop_
 _atom_site_type_symbol
 _atom_site_label
 _atom_site_symmetry_multiplicity
 _atom_site_fract_x
 _atom_site_fract_y
 _atom_site_fract_z
 _atom_site_occupancy
  K  K0  1  0.50250000  0.05480000  0.07080000  1
  K  K1  1  0.99750000  0.55480000  0.07080000  1
  K  K2  1  0.50250000  0.55480000  0.42920000  1
  K  K3  1  0.99750000  0.05480000  0.42920000  1
  K  K4  1  0.00250000  0.94520000  0.57080000  1
  K  K5  1  0.49750000  0.44520000  0.57080000  1
  K  K6  1  0.00250000  0.44520000  0.92920000  1
  K  K7  1  0.49750000  0.94520000  0.92920000  1
  Mg  Mg8  1  0.75000000  0.31480000  0.25000000  1
  Mg  Mg9  1  0.75000000  0.81480000  0.25000000  1
  Mg  Mg10  1  0.25000000  0.18520000  0.75000000  1
  Mg  Mg11  1  0.25000000  0.68520000  0.75000000  1
  Ru  Ru12  1  0.05878000  0.09411000  0.01524000  1
  Ru  Ru13  1  0.44122000  0.59411000  0.01524000  1
  Ru  Ru14  1  0.05878000  0.59411000  0.48476000  1
  Ru  Ru15  1  0.44122000  0.09411000  0.48476000  1
  Ru  Ru16  1  0.55878000  0.90589000  0.51524000  1
  Ru  Ru17  1  0.94122000  0.40589000  0.51524000  1
  Ru  Ru18  1  0.55878000  0.40589000  0.98476000  1
  Ru  Ru19  1  0.94122000  0.90589000  0.98476000  1
  C  C20  1  0.23290000  0.85680000  0.02890000  1
  C  C21  1  0.26710000  0.35680000  0.02890000  1
  C  C22  1  0.58190000  0.47140000  0.13720000  1
  C  C23  1  0.91810000  0.97140000  0.13720000  1
  C  C24  1  0.58190000  0.97140000  0.36280000  1
  C  C25  1  0.91810000  0.47140000  0.36280000  1
  C  C26  1  0.23290000  0.35680000  0.47110000  1
  C  C27  1  0.26710000  0.85680000  0.47110000  1
  C  C28  1  0.73290000  0.14320000  0.52890000  1
  C  C29  1  0.76710000  0.64320000  0.52890000  1
  C  C30  1  0.08190000  0.52860000  0.63720000  1
  C  C31  1  0.41810000  0.02860000  0.63720000  1
  C  C32  1  0.08190000  0.02860000  0.86280000  1
  C  C33  1  0.41810000  0.52860000  0.86280000  1
  C  C34  1  0.73290000  0.64320000  0.97110000  1
  C  C35  1  0.76710000  0.14320000  0.97110000  1
  O  O36  1  0.11930000  0.79650000  0.00510000  1
  O  O37  1  0.38070000  0.29650000  0.00510000  1
  O  O38  1  0.23540000  0.98430000  0.03590000  1
  O  O39  1  0.26460000  0.48430000  0.03590000  1
  O  O40  1  0.15770000  0.29150000  0.04630000  1
  O  O41  1  0.34230000  0.79150000  0.04630000  1
  O  O42  1  0.61840000  0.38290000  0.08840000  1
  O  O43  1  0.88160000  0.88290000  0.08840000  1
  O  O44  1  0.50200000  0.56990000  0.11920000  1
  O  O45  1  0.99800000  0.06990000  0.11920000  1
  O  O46  1  0.62140000  0.45720000  0.20220000  1
  O  O47  1  0.87860000  0.95720000  0.20220000  1
  O  O48  1  0.62140000  0.95720000  0.29780000  1
  O  O49  1  0.87860000  0.45720000  0.29780000  1
  O  O50  1  0.50200000  0.06990000  0.38080000  1
  O  O51  1  0.99800000  0.56990000  0.38080000  1
  O  O52  1  0.61840000  0.88290000  0.41160000  1
  O  O53  1  0.88160000  0.38290000  0.41160000  1
  O  O54  1  0.15770000  0.79150000  0.45370000  1
  O  O55  1  0.34230000  0.29150000  0.45370000  1
  O  O56  1  0.23540000  0.48430000  0.46410000  1
  O  O57  1  0.26460000  0.98430000  0.46410000  1
  O  O58  1  0.11930000  0.29650000  0.49490000  1
  O  O59  1  0.38070000  0.79650000  0.49490000  1
  O  O60  1  0.61930000  0.20350000  0.50510000  1
  O  O61  1  0.88070000  0.70350000  0.50510000  1
  O  O62  1  0.73540000  0.01570000  0.53590000  1
  O  O63  1  0.76460000  0.51570000  0.53590000  1
  O  O64  1  0.65770000  0.70850000  0.54630000  1
  O  O65  1  0.84230000  0.20850000  0.54630000  1
  O  O66  1  0.11840000  0.61710000  0.58840000  1
  O  O67  1  0.38160000  0.11710000  0.58840000  1
  O  O68  1  0.00200000  0.43010000  0.61920000  1
  O  O69  1  0.49800000  0.93010000  0.61920000  1
  O  O70  1  0.12140000  0.54280000  0.70220000  1
  O  O71  1  0.37860000  0.04280000  0.70220000  1
  O  O72  1  0.12140000  0.04280000  0.79780000  1
  O  O73  1  0.37860000  0.54280000  0.79780000  1
  O  O74  1  0.00200000  0.93010000  0.88080000  1
  O  O75  1  0.49800000  0.43010000  0.88080000  1
  O  O76  1  0.11840000  0.11710000  0.91160000  1
  O  O77  1  0.38160000  0.61710000  0.91160000  1
  O  O78  1  0.65770000  0.20850000  0.95370000  1
  O  O79  1  0.84230000  0.70850000  0.95370000  1
  O  O80  1  0.73540000  0.51570000  0.96410000  1
  O  O81  1  0.76460000  0.01570000  0.96410000  1
  O  O82  1  0.61930000  0.70350000  0.99490000  1
  O  O83  1  0.88070000  0.20350000  0.99490000  1
