# generated using pymatgen
data_Co5H68C106N8O19
_symmetry_space_group_name_H-M   'P 1'
_cell_length_a   16.16520000
_cell_length_b   16.16520000
_cell_length_c   29.49640000
_cell_angle_alpha   74.31600000
_cell_angle_beta   74.31600000
_cell_angle_gamma   63.78510000
_symmetry_Int_Tables_number   1
_chemical_formula_structural   Co5H68C106N8O19
_chemical_formula_sum   'Co10 H136 C212 N16 O38'
_cell_volume   6555.14060094
_cell_formula_units_Z   2
loop_
 _symmetry_equiv_pos_site_id
 _symmetry_equiv_pos_as_xyz
  1  'x, y, z'
loop_
 _atom_site_type_symbol
 _atom_site_label
 _atom_site_symmetry_multiplicity
 _atom_site_fract_x
 _atom_site_fract_y
 _atom_site_fract_z
 _atom_site_occupancy
  Co  Co0  1  0.00000000  0.00000000  0.00000000  1
  Co  Co1  1  0.00000000  0.00000000  0.50000000  1
  Co  Co2  1  0.18004000  0.96238000  0.41910000  1
  Co  Co3  1  0.21061000  0.87475000  0.98300000  1
  Co  Co4  1  0.03762000  0.81996000  0.08090000  1
  Co  Co5  1  0.12525000  0.78939000  0.51700000  1
  Co  Co6  1  0.87475000  0.21061000  0.48300000  1
  Co  Co7  1  0.96238000  0.18004000  0.91910000  1
  Co  Co8  1  0.78939000  0.12525000  0.01700000  1
  Co  Co9  1  0.81996000  0.03762000  0.58090000  1
  H  H10  1  0.28260000  0.98020000  0.88660000  1
  H  H11  1  0.52970000  0.97970000  0.66890000  1
  H  H12  1  0.88220000  0.96740000  0.19730000  1
  H  H13  1  0.72820000  0.95460000  0.52580000  1
  H  H14  1  0.36530000  0.94970000  0.81240000  1
  H  H15  1  0.27580000  0.94760000  0.04570000  1
  H  H16  1  0.17950000  0.94570000  0.74280000  1
  H  H17  1  0.38070000  0.94170000  0.37710000  1
  H  H18  1  0.14570000  0.93610000  0.32550000  1
  H  H19  1  0.68890000  0.91390000  0.04630000  1
  H  H20  1  0.60880000  0.90260000  0.54420000  1
  H  H21  1  0.33730000  0.89910000  0.11350000  1
  H  H22  1  0.51900000  0.88560000  0.76200000  1
  H  H23  1  0.96740000  0.88220000  0.69730000  1
  H  H24  1  0.45170000  0.87570000  0.45650000  1
  H  H25  1  0.22350000  0.86250000  0.26180000  1
  H  H26  1  0.06390000  0.85430000  0.17450000  1
  H  H27  1  0.83770000  0.84650000  0.13910000  1
  H  H28  1  0.20190000  0.84030000  0.59990000  1
  H  H29  1  0.84650000  0.83770000  0.63910000  1
  H  H30  1  0.58350000  0.83530000  0.48710000  1
  H  H31  1  0.31880000  0.82680000  0.19550000  1
  H  H32  1  0.05430000  0.82050000  0.75720000  1
  H  H33  1  0.15970000  0.79810000  0.90010000  1
  H  H34  1  0.63800000  0.79400000  0.06440000  1
  H  H35  1  0.35590000  0.79050000  0.39110000  1
  H  H36  1  0.28840000  0.78340000  0.66040000  1
  H  H37  1  0.13750000  0.77650000  0.23820000  1
  H  H38  1  0.75070000  0.76330000  0.18210000  1
  H  H39  1  0.76330000  0.75070000  0.68210000  1
  H  H40  1  0.35420000  0.73240000  0.57510000  1
  H  H41  1  0.95460000  0.72820000  0.02580000  1
  H  H42  1  0.05240000  0.72420000  0.45430000  1
  H  H43  1  0.01980000  0.71740000  0.61340000  1
  H  H44  1  0.44120000  0.71660000  0.32800000  1
  H  H45  1  0.36990000  0.71470000  0.94010000  1
  H  H46  1  0.21660000  0.71160000  0.83960000  1
  H  H47  1  0.62160000  0.70360000  0.67120000  1
  H  H48  1  0.48270000  0.69730000  0.60720000  1
  H  H49  1  0.35710000  0.69150000  0.02920000  1
  H  H50  1  0.91390000  0.68890000  0.54630000  1
  H  H51  1  0.17320000  0.68120000  0.30450000  1
  H  H52  1  0.45350000  0.67630000  0.86740000  1
  H  H53  1  0.43570000  0.67450000  0.78890000  1
  H  H54  1  0.10090000  0.66270000  0.38650000  1
  H  H55  1  0.26760000  0.64580000  0.92490000  1
  H  H56  1  0.20950000  0.64410000  0.10890000  1
  H  H57  1  0.30850000  0.64290000  0.47080000  1
  H  H58  1  0.79400000  0.63800000  0.56440000  1
  H  H59  1  0.42550000  0.63530000  0.09550000  1
  H  H60  1  0.05030000  0.63470000  0.68760000  1
  H  H61  1  0.28530000  0.63010000  0.55990000  1
  H  H62  1  0.50030000  0.62850000  0.27750000  1
  H  H63  1  0.70360000  0.62160000  0.17120000  1
  H  H64  1  0.05830000  0.61930000  0.12290000  1
  H  H65  1  0.53130000  0.61030000  0.14090000  1
  H  H66  1  0.90260000  0.60880000  0.04420000  1
  H  H67  1  0.83530000  0.58350000  0.98710000  1
  H  H68  1  0.36470000  0.57450000  0.40450000  1
  H  H69  1  0.32550000  0.56430000  0.71110000  1
  H  H70  1  0.28340000  0.55880000  0.17200000  1
  H  H71  1  0.12430000  0.54830000  0.04350000  1
  H  H72  1  0.32370000  0.54650000  0.63260000  1
  H  H73  1  0.61030000  0.53130000  0.64090000  1
  H  H74  1  0.97970000  0.52970000  0.16890000  1
  H  H75  1  0.88560000  0.51900000  0.26200000  1
  H  H76  1  0.30270000  0.51730000  0.89280000  1
  H  H77  1  0.62850000  0.50030000  0.77750000  1
  H  H78  1  0.37150000  0.49970000  0.22250000  1
  H  H79  1  0.69730000  0.48270000  0.10720000  1
  H  H80  1  0.11440000  0.48100000  0.73800000  1
  H  H81  1  0.02030000  0.47030000  0.83110000  1
  H  H82  1  0.38970000  0.46870000  0.35910000  1
  H  H83  1  0.67630000  0.45350000  0.36740000  1
  H  H84  1  0.87570000  0.45170000  0.95650000  1
  H  H85  1  0.71660000  0.44120000  0.82800000  1
  H  H86  1  0.67450000  0.43570000  0.28890000  1
  H  H87  1  0.63530000  0.42550000  0.59550000  1
  H  H88  1  0.16470000  0.41650000  0.01290000  1
  H  H89  1  0.09740000  0.39120000  0.95580000  1
  H  H90  1  0.46870000  0.38970000  0.85910000  1
  H  H91  1  0.94170000  0.38070000  0.87710000  1
  H  H92  1  0.29640000  0.37840000  0.82880000  1
  H  H93  1  0.49970000  0.37150000  0.72250000  1
  H  H94  1  0.71470000  0.36990000  0.44010000  1
  H  H95  1  0.94970000  0.36530000  0.31240000  1
  H  H96  1  0.57450000  0.36470000  0.90450000  1
  H  H97  1  0.20600000  0.36200000  0.43560000  1
  H  H98  1  0.69150000  0.35710000  0.52920000  1
  H  H99  1  0.79050000  0.35590000  0.89110000  1
  H  H100  1  0.73240000  0.35420000  0.07510000  1
  H  H101  1  0.89910000  0.33730000  0.61350000  1
  H  H102  1  0.56430000  0.32550000  0.21110000  1
  H  H103  1  0.54650000  0.32370000  0.13260000  1
  H  H104  1  0.82680000  0.31880000  0.69550000  1
  H  H105  1  0.08610000  0.31110000  0.45370000  1
  H  H106  1  0.64290000  0.30850000  0.97080000  1
  H  H107  1  0.51730000  0.30270000  0.39280000  1
  H  H108  1  0.37840000  0.29640000  0.32880000  1
  H  H109  1  0.78340000  0.28840000  0.16040000  1
  H  H110  1  0.63010000  0.28530000  0.05990000  1
  H  H111  1  0.55880000  0.28340000  0.67200000  1
  H  H112  1  0.98020000  0.28260000  0.38660000  1
  H  H113  1  0.94760000  0.27580000  0.54570000  1
  H  H114  1  0.04540000  0.27180000  0.97420000  1
  H  H115  1  0.64580000  0.26760000  0.42490000  1
  H  H116  1  0.23670000  0.24930000  0.31790000  1
  H  H117  1  0.24930000  0.23670000  0.81790000  1
  H  H118  1  0.86250000  0.22350000  0.76180000  1
  H  H119  1  0.71160000  0.21660000  0.33960000  1
  H  H120  1  0.64410000  0.20950000  0.60890000  1
  H  H121  1  0.36200000  0.20600000  0.93560000  1
  H  H122  1  0.84030000  0.20190000  0.09990000  1
  H  H123  1  0.94570000  0.17950000  0.24280000  1
  H  H124  1  0.68120000  0.17320000  0.80450000  1
  H  H125  1  0.41650000  0.16470000  0.51290000  1
  H  H126  1  0.15350000  0.16230000  0.36090000  1
  H  H127  1  0.79810000  0.15970000  0.40010000  1
  H  H128  1  0.16230000  0.15350000  0.86090000  1
  H  H129  1  0.93610000  0.14570000  0.82550000  1
  H  H130  1  0.77650000  0.13750000  0.73820000  1
  H  H131  1  0.54830000  0.12430000  0.54350000  1
  H  H132  1  0.03260000  0.11780000  0.30270000  1
  H  H133  1  0.48100000  0.11440000  0.23800000  1
  H  H134  1  0.66270000  0.10090000  0.88650000  1
  H  H135  1  0.39120000  0.09740000  0.45580000  1
  H  H136  1  0.31110000  0.08610000  0.95370000  1
  H  H137  1  0.85430000  0.06390000  0.67450000  1
  H  H138  1  0.61930000  0.05830000  0.62290000  1
  H  H139  1  0.82050000  0.05430000  0.25720000  1
  H  H140  1  0.72420000  0.05240000  0.95430000  1
  H  H141  1  0.63470000  0.05030000  0.18760000  1
  H  H142  1  0.27180000  0.04540000  0.47420000  1
  H  H143  1  0.11780000  0.03260000  0.80270000  1
  H  H144  1  0.47030000  0.02030000  0.33110000  1
  H  H145  1  0.71740000  0.01980000  0.11340000  1
  C  C146  1  0.64911000  0.99527000  0.63539000  1
  C  C147  1  0.08897000  0.98209000  0.89689000  1
  C  C148  1  0.13770000  0.96778000  0.81035000  1
  C  C149  1  0.59460000  0.94846000  0.66286000  1
  C  C150  1  0.13089000  0.92509000  0.85802000  1
  C  C151  1  0.31643000  0.91821000  0.88245000  1
  C  C152  1  0.17302000  0.91646000  0.77459000  1
  C  C153  1  0.85807000  0.91207000  0.02720000  1
  C  C154  1  0.01791000  0.91103000  0.60311000  1
  C  C155  1  0.36605000  0.90045000  0.83769000  1
  C  C156  1  0.20659000  0.89165000  0.32625000  1
  C  C157  1  0.74185000  0.89077000  0.53378000  1
  C  C158  1  0.30438000  0.88360000  0.05653000  1
  C  C159  1  0.07491000  0.86911000  0.64198000  1
  C  C160  1  0.78139000  0.86673000  0.64433000  1
  C  C161  1  0.03222000  0.86230000  0.68965000  1
  C  C162  1  0.67039000  0.85981000  0.54456000  1
  C  C163  1  0.91207000  0.85807000  0.52720000  1
  C  C164  1  0.63630000  0.85526000  0.68136000  1
  C  C165  1  0.34147000  0.85505000  0.09724000  1
  C  C166  1  0.73229000  0.85241000  0.04599000  1
  C  C167  1  0.25372000  0.84792000  0.28742000  1
  C  C168  1  0.45808000  0.83884000  0.48661000  1
  C  C169  1  0.17165000  0.83809000  0.63163000  1
  C  C170  1  0.82721000  0.83353000  0.03477000  1
  C  C171  1  0.52197000  0.83257000  0.75376000  1
  C  C172  1  0.30383000  0.83107000  0.49228000  1
  C  C173  1  0.16191000  0.82835000  0.86837000  1
  C  C174  1  0.83353000  0.82721000  0.53477000  1
  C  C175  1  0.08354000  0.82698000  0.72541000  1
  C  C176  1  0.19913000  0.82085000  0.78581000  1
  C  C177  1  0.53669000  0.81537000  0.50505000  1
  C  C178  1  0.73193000  0.81417000  0.67103000  1
  C  C179  1  0.41690000  0.80900000  0.83059000  1
  C  C180  1  0.38851000  0.80849000  0.51219000  1
  C  C181  1  0.32900000  0.80746000  0.36399000  1
  C  C182  1  0.22348000  0.80408000  0.66768000  1
  C  C183  1  0.57904000  0.80270000  0.71165000  1
  C  C184  1  0.17915000  0.80087000  0.71419000  1
  C  C185  1  0.10835000  0.79341000  0.17375000  1
  C  C186  1  0.46954000  0.78388000  0.78348000  1
  C  C187  1  0.34470000  0.78308000  0.28553000  1
  C  C188  1  0.86673000  0.78139000  0.14433000  1
  C  C189  1  0.70172000  0.78112000  0.05668000  1
  C  C190  1  0.19592000  0.77652000  0.83232000  1
  C  C191  1  0.37112000  0.77094000  0.19929000  1
  C  C192  1  0.69105000  0.76613000  0.55576000  1
  C  C193  1  0.36737000  0.76255000  0.91381000  1
  C  C194  1  0.54629000  0.76219000  0.55010000  1
  C  C195  1  0.38099000  0.76195000  0.32609000  1
  C  C196  1  0.38526000  0.76066000  0.11434000  1
  C  C197  1  0.39991000  0.75417000  0.55746000  1
  C  C198  1  0.15208000  0.74628000  0.21258000  1
  C  C199  1  0.89077000  0.74185000  0.03378000  1
  C  C200  1  0.41835000  0.73883000  0.87024000  1
  C  C201  1  0.39947000  0.73527000  0.24348000  1
  C  C202  1  0.35240000  0.73402000  0.04664000  1
  C  C203  1  0.85241000  0.73229000  0.54599000  1
  C  C204  1  0.47713000  0.73217000  0.57659000  1
  C  C205  1  0.81417000  0.73193000  0.17103000  1
  C  C206  1  0.41929000  0.72489000  0.16065000  1
  C  C207  1  0.58257000  0.72487000  0.69887000  1
  C  C208  1  0.47175000  0.70687000  0.76972000  1
  C  C209  1  0.78112000  0.70172000  0.55668000  1
  C  C210  1  0.39296000  0.69950000  0.08681000  1
  C  C211  1  0.16893000  0.69617000  0.00772000  1
  C  C212  1  0.11640000  0.69562000  0.44347000  1
  C  C213  1  0.76613000  0.69105000  0.05576000  1
  C  C214  1  0.08179000  0.68357000  0.61755000  1
  C  C215  1  0.52704000  0.67904000  0.72799000  1
  C  C216  1  0.19254000  0.67100000  0.13601000  1
  C  C217  1  0.85981000  0.67039000  0.04456000  1
  C  C218  1  0.14495000  0.65853000  0.40276000  1
  C  C219  1  0.21692000  0.65530000  0.21447000  1
  C  C220  1  0.47951000  0.65305000  0.24830000  1
  C  C221  1  0.99527000  0.64911000  0.13539000  1
  C  C222  1  0.26598000  0.64760000  0.45336000  1
  C  C223  1  0.49838000  0.64234000  0.16632000  1
  C  C224  1  0.85526000  0.63630000  0.18136000  1
  C  C225  1  0.09955000  0.63395000  0.66231000  1
  C  C226  1  0.23745000  0.63263000  0.58619000  1
  C  C227  1  0.22906000  0.62888000  0.30071000  1
  C  C228  1  0.23805000  0.61901000  0.17391000  1
  C  C229  1  0.23934000  0.61474000  0.38566000  1
  C  C230  1  0.19151000  0.61149000  0.98781000  1
  C  C231  1  0.52757000  0.60835000  0.20976000  1
  C  C232  1  0.30050000  0.60704000  0.41319000  1
  C  C233  1  0.26473000  0.60053000  0.25652000  1
  C  C234  1  0.24583000  0.60009000  0.94254000  1
  C  C235  1  0.94846000  0.59460000  0.16286000  1
  C  C236  1  0.19100000  0.58310000  0.66941000  1
  C  C237  1  0.72487000  0.58257000  0.19887000  1
  C  C238  1  0.26117000  0.58165000  0.62976000  1
  C  C239  1  0.27511000  0.58071000  0.33935000  1
  C  C240  1  0.80270000  0.57904000  0.21165000  1
  C  C241  1  0.76219000  0.54629000  0.05010000  1
  C  C242  1  0.16116000  0.54192000  0.01339000  1
  C  C243  1  0.81537000  0.53669000  0.00505000  1
  C  C244  1  0.21612000  0.53046000  0.71652000  1
  C  C245  1  0.29313000  0.52825000  0.73028000  1
  C  C246  1  0.60835000  0.52757000  0.70976000  1
  C  C247  1  0.67904000  0.52704000  0.22799000  1
  C  C248  1  0.26783000  0.52287000  0.92341000  1
  C  C249  1  0.83257000  0.52197000  0.25376000  1
  C  C250  1  0.34695000  0.52049000  0.25170000  1
  C  C251  1  0.35766000  0.50162000  0.33368000  1
  C  C252  1  0.64234000  0.49838000  0.66632000  1
  C  C253  1  0.65305000  0.47951000  0.74830000  1
  C  C254  1  0.16743000  0.47803000  0.74624000  1
  C  C255  1  0.73217000  0.47713000  0.07659000  1
  C  C256  1  0.32096000  0.47296000  0.77201000  1
  C  C257  1  0.39165000  0.47243000  0.29024000  1
  C  C258  1  0.70687000  0.47175000  0.26972000  1
  C  C259  1  0.78388000  0.46954000  0.28348000  1
  C  C260  1  0.18463000  0.46331000  0.99495000  1
  C  C261  1  0.83884000  0.45808000  0.98661000  1
  C  C262  1  0.23781000  0.45371000  0.94990000  1
  C  C263  1  0.19730000  0.42096000  0.78835000  1
  C  C264  1  0.72489000  0.41929000  0.66065000  1
  C  C265  1  0.73883000  0.41835000  0.37024000  1
  C  C266  1  0.27513000  0.41743000  0.80113000  1
  C  C267  1  0.80900000  0.41690000  0.33059000  1
  C  C268  1  0.05154000  0.40540000  0.83714000  1
  C  C269  1  0.75417000  0.39991000  0.05746000  1
  C  C270  1  0.73527000  0.39947000  0.74348000  1
  C  C271  1  0.69950000  0.39296000  0.58681000  1
  C  C272  1  0.47243000  0.39165000  0.79024000  1
  C  C273  1  0.80849000  0.38851000  0.01219000  1
  C  C274  1  0.76066000  0.38526000  0.61434000  1
  C  C275  1  0.76195000  0.38099000  0.82609000  1
  C  C276  1  0.77094000  0.37112000  0.69929000  1
  C  C277  1  0.76255000  0.36737000  0.41381000  1
  C  C278  1  0.90045000  0.36605000  0.33769000  1
  C  C279  1  0.14474000  0.36370000  0.81864000  1
  C  C280  1  0.50162000  0.35766000  0.83368000  1
  C  C281  1  0.73402000  0.35240000  0.54664000  1
  C  C282  1  0.00473000  0.35089000  0.86461000  1
  C  C283  1  0.52049000  0.34695000  0.75170000  1
  C  C284  1  0.78308000  0.34470000  0.78553000  1
  C  C285  1  0.85505000  0.34147000  0.59724000  1
  C  C286  1  0.14019000  0.32961000  0.95544000  1
  C  C287  1  0.80746000  0.32900000  0.86399000  1
  C  C288  1  0.47296000  0.32096000  0.27201000  1
  C  C289  1  0.91821000  0.31643000  0.38245000  1
  C  C290  1  0.23387000  0.30895000  0.94424000  1
  C  C291  1  0.88360000  0.30438000  0.55653000  1
  C  C292  1  0.83107000  0.30383000  0.99228000  1
  C  C293  1  0.60704000  0.30050000  0.91319000  1
  C  C294  1  0.21888000  0.29828000  0.44332000  1
  C  C295  1  0.52825000  0.29313000  0.23028000  1
  C  C296  1  0.41743000  0.27513000  0.30113000  1
  C  C297  1  0.58071000  0.27511000  0.83935000  1
  C  C298  1  0.18583000  0.26807000  0.82897000  1
  C  C299  1  0.52287000  0.26783000  0.42341000  1
  C  C300  1  0.14759000  0.26771000  0.45401000  1
  C  C301  1  0.64760000  0.26598000  0.95336000  1
  C  C302  1  0.60053000  0.26473000  0.75652000  1
  C  C303  1  0.58165000  0.26117000  0.12976000  1
  C  C304  1  0.10923000  0.25815000  0.96622000  1
  C  C305  1  0.84792000  0.25372000  0.78742000  1
  C  C306  1  0.60009000  0.24583000  0.44254000  1
  C  C307  1  0.61474000  0.23934000  0.88566000  1
  C  C308  1  0.61901000  0.23805000  0.67391000  1
  C  C309  1  0.45371000  0.23781000  0.44990000  1
  C  C310  1  0.63263000  0.23745000  0.08619000  1
  C  C311  1  0.30895000  0.23387000  0.44424000  1
  C  C312  1  0.62888000  0.22906000  0.80071000  1
  C  C313  1  0.80408000  0.22348000  0.16768000  1
  C  C314  1  0.29828000  0.21888000  0.94332000  1
  C  C315  1  0.13327000  0.21861000  0.85567000  1
  C  C316  1  0.65530000  0.21692000  0.71447000  1
  C  C317  1  0.53046000  0.21612000  0.21652000  1
  C  C318  1  0.89165000  0.20659000  0.82625000  1
  C  C319  1  0.82085000  0.19913000  0.28581000  1
  C  C320  1  0.42096000  0.19730000  0.28835000  1
  C  C321  1  0.77652000  0.19592000  0.33232000  1
  C  C322  1  0.67100000  0.19254000  0.63601000  1
  C  C323  1  0.61149000  0.19151000  0.48781000  1
  C  C324  1  0.58310000  0.19100000  0.16941000  1
  C  C325  1  0.26807000  0.18583000  0.32897000  1
  C  C326  1  0.46331000  0.18463000  0.49495000  1
  C  C327  1  0.80087000  0.17915000  0.21419000  1
  C  C328  1  0.91646000  0.17302000  0.27459000  1
  C  C329  1  0.16647000  0.17279000  0.46523000  1
  C  C330  1  0.83809000  0.17165000  0.13163000  1
  C  C331  1  0.69617000  0.16893000  0.50772000  1
  C  C332  1  0.47803000  0.16743000  0.24624000  1
  C  C333  1  0.17279000  0.16647000  0.96523000  1
  C  C334  1  0.82835000  0.16191000  0.36837000  1
  C  C335  1  0.54192000  0.16116000  0.51339000  1
  C  C336  1  0.74628000  0.15208000  0.71258000  1
  C  C337  1  0.26771000  0.14759000  0.95401000  1
  C  C338  1  0.65853000  0.14495000  0.90276000  1
  C  C339  1  0.36370000  0.14474000  0.31864000  1
  C  C340  1  0.08793000  0.14193000  0.47280000  1
  C  C341  1  0.32961000  0.14019000  0.45544000  1
  C  C342  1  0.96778000  0.13770000  0.31035000  1
  C  C343  1  0.21861000  0.13327000  0.35567000  1
  C  C344  1  0.92509000  0.13089000  0.35802000  1
  C  C345  1  0.69562000  0.11640000  0.94347000  1
  C  C346  1  0.25815000  0.10923000  0.46622000  1
  C  C347  1  0.79341000  0.10835000  0.67375000  1
  C  C348  1  0.63395000  0.09955000  0.16231000  1
  C  C349  1  0.98209000  0.08897000  0.39689000  1
  C  C350  1  0.14193000  0.08793000  0.97280000  1
  C  C351  1  0.82698000  0.08354000  0.22541000  1
  C  C352  1  0.68357000  0.08179000  0.11755000  1
  C  C353  1  0.86911000  0.07491000  0.14198000  1
  C  C354  1  0.40540000  0.05154000  0.33714000  1
  C  C355  1  0.86230000  0.03222000  0.18965000  1
  C  C356  1  0.91103000  0.01791000  0.10311000  1
  C  C357  1  0.35089000  0.00473000  0.36461000  1
  N  N358  1  0.74240000  0.95588000  0.62555000  1
  N  N359  1  0.24262000  0.87440000  0.36473000  1
  N  N360  1  0.31461000  0.85057000  0.92025000  1
  N  N361  1  0.30652000  0.82516000  0.03121000  1
  N  N362  1  0.12560000  0.75738000  0.13527000  1
  N  N363  1  0.95588000  0.74240000  0.12555000  1
  N  N364  1  0.17484000  0.69348000  0.46879000  1
  N  N365  1  0.14943000  0.68539000  0.57975000  1
  N  N366  1  0.85057000  0.31461000  0.42025000  1
  N  N367  1  0.82516000  0.30652000  0.53121000  1
  N  N368  1  0.04412000  0.25760000  0.87445000  1
  N  N369  1  0.87440000  0.24262000  0.86473000  1
  N  N370  1  0.69348000  0.17484000  0.96879000  1
  N  N371  1  0.68539000  0.14943000  0.07975000  1
  N  N372  1  0.75738000  0.12560000  0.63527000  1
  N  N373  1  0.25760000  0.04412000  0.37445000  1
  O  O374  1  0.79457000  0.99225000  0.02758000  1
  O  O375  1  0.93021000  0.94571000  0.61597000  1
  O  O376  1  0.89256000  0.94470000  0.52143000  1
  O  O377  1  0.08964000  0.93956000  0.93981000  1
  O  O378  1  0.94571000  0.93021000  0.11597000  1
  O  O379  1  0.06044000  0.91036000  0.56019000  1
  O  O380  1  0.09988000  0.90674000  0.03866000  1
  O  O381  1  0.09326000  0.90012000  0.46134000  1
  O  O382  1  0.94470000  0.89256000  0.02143000  1
  O  O383  1  0.29076000  0.89012000  0.45428000  1
  O  O384  1  0.99225000  0.79457000  0.52758000  1
  O  O385  1  0.25183000  0.78923000  0.51500000  1
  O  O386  1  0.23340000  0.76660000  0.75000000  1
  O  O387  1  0.21077000  0.74817000  0.98500000  1
  O  O388  1  0.62346000  0.72880000  0.57153000  1
  O  O389  1  0.10988000  0.70924000  0.04572000  1
  O  O390  1  0.72880000  0.62346000  0.07153000  1
  O  O391  1  0.52426000  0.60460000  0.71406000  1
  O  O392  1  0.60460000  0.52426000  0.21406000  1
  O  O393  1  0.39540000  0.47574000  0.78594000  1
  O  O394  1  0.47574000  0.39540000  0.28594000  1
  O  O395  1  0.27120000  0.37654000  0.92847000  1
  O  O396  1  0.89012000  0.29076000  0.95428000  1
  O  O397  1  0.37654000  0.27120000  0.42847000  1
  O  O398  1  0.78923000  0.25183000  0.01500000  1
  O  O399  1  0.76660000  0.23340000  0.25000000  1
  O  O400  1  0.74817000  0.21077000  0.48500000  1
  O  O401  1  0.00775000  0.20543000  0.47242000  1
  O  O402  1  0.70924000  0.10988000  0.54572000  1
  O  O403  1  0.05530000  0.10744000  0.97857000  1
  O  O404  1  0.90674000  0.09988000  0.53866000  1
  O  O405  1  0.90012000  0.09326000  0.96134000  1
  O  O406  1  0.93956000  0.08964000  0.43981000  1
  O  O407  1  0.05429000  0.06979000  0.88403000  1
  O  O408  1  0.91036000  0.06044000  0.06019000  1
  O  O409  1  0.10744000  0.05530000  0.47857000  1
  O  O410  1  0.06979000  0.05429000  0.38403000  1
  O  O411  1  0.20543000  0.00775000  0.97242000  1
