# generated using pymatgen
data_AlH5C8O5
_symmetry_space_group_name_H-M   'P 1'
_cell_length_a   6.57600000
_cell_length_b   7.61200000
_cell_length_c   10.47255783
_cell_angle_alpha   111.31040855
_cell_angle_beta   103.24805432
_cell_angle_gamma   90.00000000
_symmetry_Int_Tables_number   1
_chemical_formula_structural   AlH5C8O5
_chemical_formula_sum   'Al2 H10 C16 O10'
_cell_volume   473.37008120
_cell_formula_units_Z   2
loop_
 _symmetry_equiv_pos_site_id
 _symmetry_equiv_pos_as_xyz
  1  'x, y, z'
loop_
 _atom_site_type_symbol
 _atom_site_label
 _atom_site_symmetry_multiplicity
 _atom_site_fract_x
 _atom_site_fract_y
 _atom_site_fract_z
 _atom_site_occupancy
  Al  Al0  1  0.99900000  0.99880000  0.99760000  1
  Al  Al1  1  0.49900000  0.99880000  0.99760000  1
  H  H2  1  0.89061000  0.95412000  0.58800000  1
  H  H3  1  0.75836000  0.62063000  0.66221000  1
  H  H4  1  0.74400000  0.78624000  0.03725000  1
  H  H5  1  0.72401000  0.84900000  0.32088000  1
  H  H6  1  0.61970000  0.35809000  0.41360000  1
  H  H7  1  0.39061000  0.63388000  0.58800000  1
  H  H8  1  0.25836000  0.04159000  0.66221000  1
  H  H9  1  0.24400000  0.21376000  0.96275000  1
  H  H10  1  0.22401000  0.47188000  0.32088000  1
  H  H11  1  0.11970000  0.05552000  0.41360000  1
  C  C12  1  0.92200000  0.39280000  0.36360000  1
  C  C13  1  0.87000000  0.55440000  0.59280000  1
  C  C14  1  0.84000000  0.28550000  0.21300000  1
  C  C15  1  0.78800000  0.42560000  0.44920000  1
  C  C16  1  0.71900000  0.97440000  0.54880000  1
  C  C17  1  0.66500000  0.06860000  0.78720000  1
  C  C18  1  0.62900000  0.92320000  0.40040000  1
  C  C19  1  0.59000000  0.04840000  0.64080000  1
  C  C20  1  0.42200000  0.97080000  0.36360000  1
  C  C21  1  0.37000000  0.03840000  0.59280000  1
  C  C22  1  0.34000000  0.92750000  0.21300000  1
  C  C23  1  0.28800000  0.02360000  0.44920000  1
  C  C24  1  0.21900000  0.57440000  0.54880000  1
  C  C25  1  0.16500000  0.71860000  0.78720000  1
  C  C26  1  0.12900000  0.47720000  0.40040000  1
  C  C27  1  0.09000000  0.59240000  0.64080000  1
  O  O28  1  0.94900000  0.23680000  0.12760000  1
  O  O29  1  0.86300000  0.06560000  0.83120000  1
  O  O30  1  0.74400000  0.89000000  1.00000000  1
  O  O31  1  0.66000000  0.19040000  0.18280000  1
  O  O32  1  0.56000000  0.11750000  0.87500000  1
  O  O33  1  0.44900000  0.89080000  0.12760000  1
  O  O34  1  0.36300000  0.76560000  0.83120000  1
  O  O35  1  0.24400000  0.11000000  0.00000000  1
  O  O36  1  0.16000000  0.99240000  0.18280000  1
  O  O37  1  0.06000000  0.75750000  0.87500000  1
