# generated using pymatgen
data_MnH12C16(NO2)2
_symmetry_space_group_name_H-M   'P 1'
_cell_length_a   10.02690000
_cell_length_b   12.75480000
_cell_length_c   16.43970000
_cell_angle_alpha   90.00000000
_cell_angle_beta   90.00000000
_cell_angle_gamma   90.64500000
_symmetry_Int_Tables_number   1
_chemical_formula_structural   MnH12C16(NO2)2
_chemical_formula_sum   'Mn4 H48 C64 N8 O16'
_cell_volume   2102.35816306
_cell_formula_units_Z   4
loop_
 _symmetry_equiv_pos_site_id
 _symmetry_equiv_pos_as_xyz
  1  'x, y, z'
loop_
 _atom_site_type_symbol
 _atom_site_label
 _atom_site_symmetry_multiplicity
 _atom_site_fract_x
 _atom_site_fract_y
 _atom_site_fract_z
 _atom_site_occupancy
  Mn  Mn0  1  0.75160000  0.99823000  0.49987000  1
  Mn  Mn1  1  0.75160000  0.49823000  0.00013000  1
  Mn  Mn2  1  0.24840000  0.50177000  0.99987000  1
  Mn  Mn3  1  0.24840000  0.00177000  0.50013000  1
  H  H4  1  0.99900000  0.64540000  0.79940000  1
  H  H5  1  0.99900000  0.14540000  0.70060000  1
  H  H6  1  0.89380000  0.08530000  0.34030000  1
  H  H7  1  0.89380000  0.58530000  0.15970000  1
  H  H8  1  0.88660000  0.18670000  0.81760000  1
  H  H9  1  0.88660000  0.68670000  0.68240000  1
  H  H10  1  0.85760000  0.68430000  0.27390000  1
  H  H11  1  0.85760000  0.18430000  0.22610000  1
  H  H12  1  0.84540000  0.28230000  0.93160000  1
  H  H13  1  0.84540000  0.78230000  0.56840000  1
  H  H14  1  0.81530000  0.75650000  0.88600000  1
  H  H15  1  0.81530000  0.25650000  0.61400000  1
  H  H16  1  0.76470000  0.92960000  0.81530000  1
  H  H17  1  0.76470000  0.42960000  0.68470000  1
  H  H18  1  0.72700000  0.51920000  0.80300000  1
  H  H19  1  0.72700000  0.01920000  0.69700000  1
  H  H20  1  0.71020000  0.78710000  0.36100000  1
  H  H21  1  0.71020000  0.28710000  0.13900000  1
  H  H22  1  0.55200000  0.70490000  0.81510000  1
  H  H23  1  0.55200000  0.20490000  0.68490000  1
  H  H24  1  0.52590000  0.29640000  0.79100000  1
  H  H25  1  0.52590000  0.79640000  0.70900000  1
  H  H26  1  0.51960000  0.10150000  0.40120000  1
  H  H27  1  0.51960000  0.60150000  0.09880000  1
  H  H28  1  0.48040000  0.39850000  0.90120000  1
  H  H29  1  0.48040000  0.89850000  0.59880000  1
  H  H30  1  0.47410000  0.20360000  0.29100000  1
  H  H31  1  0.47410000  0.70360000  0.20900000  1
  H  H32  1  0.44800000  0.79510000  0.31510000  1
  H  H33  1  0.44800000  0.29510000  0.18490000  1
  H  H34  1  0.28980000  0.71290000  0.86100000  1
  H  H35  1  0.28980000  0.21290000  0.63900000  1
  H  H36  1  0.27300000  0.98080000  0.30300000  1
  H  H37  1  0.27300000  0.48080000  0.19700000  1
  H  H38  1  0.23530000  0.57040000  0.31530000  1
  H  H39  1  0.23530000  0.07040000  0.18470000  1
  H  H40  1  0.18470000  0.74350000  0.38600000  1
  H  H41  1  0.18470000  0.24350000  0.11400000  1
  H  H42  1  0.15460000  0.21770000  0.43160000  1
  H  H43  1  0.15460000  0.71770000  0.06840000  1
  H  H44  1  0.14240000  0.81570000  0.77390000  1
  H  H45  1  0.14240000  0.31570000  0.72610000  1
  H  H46  1  0.11340000  0.31330000  0.31760000  1
  H  H47  1  0.11340000  0.81330000  0.18240000  1
  H  H48  1  0.10620000  0.41470000  0.84030000  1
  H  H49  1  0.10620000  0.91470000  0.65970000  1
  H  H50  1  0.00100000  0.85460000  0.29940000  1
  H  H51  1  0.00100000  0.35460000  0.20060000  1
  C  C52  1  0.99750000  0.62150000  0.92640000  1
  C  C53  1  0.99750000  0.12150000  0.57360000  1
  C  C54  1  0.95680000  0.66830000  0.84650000  1
  C  C55  1  0.95680000  0.16830000  0.65350000  1
  C  C56  1  0.86440000  0.74030000  0.83980000  1
  C  C57  1  0.86440000  0.24030000  0.66020000  1
  C  C58  1  0.85500000  0.25470000  0.81270000  1
  C  C59  1  0.85500000  0.75470000  0.68730000  1
  C  C60  1  0.83310000  0.79740000  0.76380000  1
  C  C61  1  0.83310000  0.29740000  0.73620000  1
  C  C62  1  0.82990000  0.31290000  0.88120000  1
  C  C63  1  0.82990000  0.81290000  0.61880000  1
  C  C64  1  0.80820000  0.10930000  0.33010000  1
  C  C65  1  0.80820000  0.60930000  0.16990000  1
  C  C66  1  0.78720000  0.16940000  0.26130000  1
  C  C67  1  0.78720000  0.66940000  0.23870000  1
  C  C68  1  0.78310000  0.89800000  0.76570000  1
  C  C69  1  0.78310000  0.39800000  0.73430000  1
  C  C70  1  0.76050000  0.45160000  0.80600000  1
  C  C71  1  0.76050000  0.95160000  0.69400000  1
  C  C72  1  0.66080000  0.70740000  0.25510000  1
  C  C73  1  0.66080000  0.20740000  0.24490000  1
  C  C74  1  0.63750000  0.77170000  0.32770000  1
  C  C75  1  0.63750000  0.27170000  0.17230000  1
  C  C76  1  0.58880000  0.11930000  0.36590000  1
  C  C77  1  0.58880000  0.61930000  0.13410000  1
  C  C78  1  0.56050000  0.18040000  0.29950000  1
  C  C79  1  0.56050000  0.68040000  0.20050000  1
  C  C80  1  0.52040000  0.80910000  0.34890000  1
  C  C81  1  0.52040000  0.30910000  0.15110000  1
  C  C82  1  0.50320000  0.62720000  0.92380000  1
  C  C83  1  0.50320000  0.12720000  0.57620000  1
  C  C84  1  0.49680000  0.87280000  0.42380000  1
  C  C85  1  0.49680000  0.37280000  0.07620000  1
  C  C86  1  0.47960000  0.69090000  0.84890000  1
  C  C87  1  0.47960000  0.19090000  0.65110000  1
  C  C88  1  0.43950000  0.31960000  0.79950000  1
  C  C89  1  0.43950000  0.81960000  0.70050000  1
  C  C90  1  0.41120000  0.38070000  0.86590000  1
  C  C91  1  0.41120000  0.88070000  0.63410000  1
  C  C92  1  0.36250000  0.72830000  0.82770000  1
  C  C93  1  0.36250000  0.22830000  0.67230000  1
  C  C94  1  0.33920000  0.79260000  0.75510000  1
  C  C95  1  0.33920000  0.29260000  0.74490000  1
  C  C96  1  0.23950000  0.04840000  0.30600000  1
  C  C97  1  0.23950000  0.54840000  0.19400000  1
  C  C98  1  0.21690000  0.60200000  0.26570000  1
  C  C99  1  0.21690000  0.10200000  0.23430000  1
  C  C100  1  0.21280000  0.33060000  0.76130000  1
  C  C101  1  0.21280000  0.83060000  0.73870000  1
  C  C102  1  0.19180000  0.39070000  0.83010000  1
  C  C103  1  0.19180000  0.89070000  0.66990000  1
  C  C104  1  0.17010000  0.18710000  0.38120000  1
  C  C105  1  0.17010000  0.68710000  0.11880000  1
  C  C106  1  0.16690000  0.70260000  0.26380000  1
  C  C107  1  0.16690000  0.20260000  0.23620000  1
  C  C108  1  0.14500000  0.24530000  0.31270000  1
  C  C109  1  0.14500000  0.74530000  0.18730000  1
  C  C110  1  0.13560000  0.75970000  0.33980000  1
  C  C111  1  0.13560000  0.25970000  0.16020000  1
  C  C112  1  0.04320000  0.83170000  0.34650000  1
  C  C113  1  0.04320000  0.33170000  0.15350000  1
  C  C114  1  0.00250000  0.87850000  0.42640000  1
  C  C115  1  0.00250000  0.37850000  0.07360000  1
  N  N116  1  0.78460000  0.41090000  0.87959000  1
  N  N117  1  0.78460000  0.91090000  0.62041000  1
  N  N118  1  0.71190000  0.08420000  0.38248000  1
  N  N119  1  0.71190000  0.58420000  0.11752000  1
  N  N120  1  0.28810000  0.41580000  0.88248000  1
  N  N121  1  0.28810000  0.91580000  0.61752000  1
  N  N122  1  0.21540000  0.08910000  0.37959000  1
  N  N123  1  0.21540000  0.58910000  0.12041000  1
  O  O124  1  0.91320000  0.60970000  0.98169000  1
  O  O125  1  0.91320000  0.10970000  0.51831000  1
  O  O126  1  0.88030000  0.89860000  0.43119000  1
  O  O127  1  0.88030000  0.39860000  0.06881000  1
  O  O128  1  0.62080000  0.59760000  0.93302000  1
  O  O129  1  0.62080000  0.09760000  0.56698000  1
  O  O130  1  0.59160000  0.88830000  0.47215000  1
  O  O131  1  0.59160000  0.38830000  0.02785000  1
  O  O132  1  0.40840000  0.61170000  0.97215000  1
  O  O133  1  0.40840000  0.11170000  0.52785000  1
  O  O134  1  0.37920000  0.90240000  0.43302000  1
  O  O135  1  0.37920000  0.40240000  0.06698000  1
  O  O136  1  0.11970000  0.60140000  0.93119000  1
  O  O137  1  0.11970000  0.10140000  0.56881000  1
  O  O138  1  0.08680000  0.89030000  0.48169000  1
  O  O139  1  0.08680000  0.39030000  0.01831000  1
