# generated using pymatgen
data_LaH15(C9O2)3
_symmetry_space_group_name_H-M   'P 1'
_cell_length_a   12.83500000
_cell_length_b   16.90103358
_cell_length_c   16.90103358
_cell_angle_alpha   113.82095837
_cell_angle_beta   104.66341927
_cell_angle_gamma   104.66341927
_symmetry_Int_Tables_number   1
_chemical_formula_structural   LaH15(C9O2)3
_chemical_formula_sum   'La3 H45 C81 O18'
_cell_volume   2971.60956798
_cell_formula_units_Z   3
loop_
 _symmetry_equiv_pos_site_id
 _symmetry_equiv_pos_as_xyz
  1  'x, y, z'
loop_
 _atom_site_type_symbol
 _atom_site_label
 _atom_site_symmetry_multiplicity
 _atom_site_fract_x
 _atom_site_fract_y
 _atom_site_fract_z
 _atom_site_occupancy
  C  C0  1  0.50000000  0.56709667  0.43290333  1
  C  C1  1  0.50000000  0.41843333  0.58156667  1
  C  C2  1  0.50000000  0.36688333  0.63311667  1
  C  C3  1  0.50000000  0.27014333  0.72985667  1
  C  C4  1  0.17876000  0.31458000  0.72982000  1
  C  C5  1  0.18710000  0.46289000  0.58162000  1
  C  C6  1  0.18421000  0.41136000  0.63315000  1
  C  C7  1  0.19255000  0.55964000  0.48493000  1
  C  C8  1  0.19547000  0.61154000  0.43306000  1
  C  C9  1  0.89991000  0.55224000  0.52472000  1
  C  C10  1  0.90263000  0.50390000  0.57309000  1
  C  C11  1  0.86418000  0.41524000  0.68542000  1
  C  C12  1  0.86688333  0.36688333  0.73376667  1
  C  C13  1  0.48059000  0.54794000  0.56592000  1
  C  C14  1  0.48059000  0.49957000  0.61429000  1
  C  C15  1  0.55106000  0.41524000  0.72982000  1
  C  C16  1  0.55106000  0.36685000  0.77821000  1
  C  C17  1  0.27955000  0.54723000  0.61878000  1
  C  C18  1  0.28228000  0.59563000  0.57044000  1
  C  C19  1  0.22985667  0.45971333  0.72985667  1
  C  C20  1  0.22715000  0.41136000  0.77821000  1
  C  C21  1  0.58393000  0.82152000  0.38846000  1
  C  C22  1  0.23759000  0.82152000  0.43306000  1
  C  C23  1  0.91843667  0.41843667  0.83687333  1
  C  C24  1  0.86630000  0.38571000  0.88528000  1
  C  C25  1  0.93290333  0.86580667  0.43290333  1
  C  C26  1  0.60548000  0.41838000  0.88127000  1
  C  C27  1  0.66077000  0.38122000  0.92845000  1
  C  C28  1  0.27579000  0.46289000  0.88127000  1
  C  C29  1  0.32954000  0.42691000  0.93081000  1
  C  C30  1  0.63291000  0.92529000  0.44036000  1
  C  C31  1  0.68665000  0.97481000  0.40437000  1
  C  C32  1  0.01898000  0.49957000  0.88528000  1
  C  C33  1  0.29238000  0.92529000  0.48493000  1
  C  C34  1  0.91467000  0.43408000  0.98202000  1
  C  C35  1  0.34767000  0.97248000  0.44776000  1
  C  C36  1  0.60127000  0.50390000  0.93081000  1
  C  C37  1  0.98480667  0.96961333  0.48480667  1
  C  C38  1  0.71184000  0.42956000  0.02519000  1
  C  C39  1  0.93265000  0.01798000  0.45206000  1
  C  C40  1  0.26768000  0.54723000  0.92845000  1
  C  C41  1  0.62481000  0.97248000  0.52472000  1
  C  C42  1  0.37519000  0.47528000  0.02752000  1
  C  C43  1  0.73232000  0.07155000  0.45277000  1
  C  C44  1  0.06735000  0.54794000  0.98202000  1
  C  C45  1  0.28816000  0.97481000  0.57044000  1
  C  C46  1  0.01519333  0.51519000  0.03039000  1
  C  C47  1  0.39873000  0.06919000  0.49610000  1
  C  C48  1  0.65233000  0.55224000  0.02752000  1
  C  C49  1  0.08533000  0.01798000  0.56592000  1
  C  C50  1  0.70762000  0.51507000  0.07471000  1
  C  C51  1  0.98102000  0.11472000  0.50043000  1
  C  C52  1  0.31335000  0.59563000  0.02519000  1
  C  C53  1  0.36709000  0.55964000  0.07471000  1
  C  C54  1  0.67046000  0.06919000  0.57309000  1
  C  C55  1  0.72421000  0.11873000  0.53711000  1
  C  C56  1  0.33923000  0.07155000  0.61878000  1
  C  C57  1  0.39452000  0.11873000  0.58162000  1
  C  C58  1  0.06709667  0.56709667  0.13419333  1
  C  C59  1  0.13370000  0.11472000  0.61429000  1
  C  C60  1  0.08156667  0.16313333  0.58156667  1
  C  C61  1  0.76241000  0.56694000  0.17848000  1
  C  C62  1  0.41607000  0.61154000  0.17848000  1
  C  C63  1  0.77014333  0.27014333  0.54028667  1
  C  C64  1  0.77285000  0.22179000  0.58864000  1
  C  C65  1  0.71772000  0.42956000  0.40437000  1
  C  C66  1  0.72045000  0.38122000  0.45277000  1
  C  C67  1  0.44894000  0.27018000  0.58476000  1
  C  C68  1  0.44894000  0.22179000  0.63315000  1
  C  C69  1  0.51941000  0.43408000  0.45206000  1
  C  C70  1  0.51941000  0.38571000  0.50043000  1
  C  C71  1  0.13582000  0.31458000  0.58476000  1
  C  C72  1  0.13311667  0.26623333  0.63311667  1
  C  C73  1  0.09737000  0.42691000  0.49610000  1
  C  C74  1  0.10009000  0.47528000  0.44776000  1
  C  C75  1  0.80453000  0.56694000  0.38846000  1
  C  C76  1  0.80745000  0.51507000  0.44036000  1
  C  C77  1  0.81290000  0.41838000  0.53711000  1
  C  C78  1  0.81579000  0.36685000  0.58864000  1
  C  C79  1  0.82124000  0.27018000  0.68542000  1
  C  C80  1  0.50000000  0.51519333  0.48480667  1
  H  H81  1  0.50000000  0.23483333  0.76516667  1
  H  H82  1  0.17677000  0.27928000  0.76512000  1
  H  H83  1  0.96540000  0.61465000  0.55096000  1
  H  H84  1  0.97010000  0.53101000  0.63463000  1
  H  H85  1  0.79291000  0.32650000  0.84996000  1
  H  H86  1  0.46641000  0.60715000  0.58981000  1
  H  H87  1  0.46641000  0.52346000  0.67350000  1
  H  H88  1  0.89749000  0.48584000  0.72072000  1
  H  H89  1  0.66386000  0.31881000  0.89231000  1
  H  H90  1  0.58835000  0.48584000  0.76512000  1
  H  H91  1  0.34505000  0.57350000  0.68119000  1
  H  H92  1  0.34975000  0.65717000  0.59755000  1
  H  H93  1  0.33547000  0.36537000  0.89638000  1
  H  H94  1  0.69258000  0.94038000  0.34283000  1
  H  H95  1  0.26516667  0.53033333  0.76516667  1
  H  H96  1  0.35075000  0.93631000  0.38535000  1
  H  H97  1  0.05705000  0.52346000  0.84996000  1
  H  H98  1  0.85926000  0.98266000  0.39285000  1
  H  H99  1  0.56091000  0.53101000  0.89638000  1
  H  H100  1  0.87660000  0.41019000  0.01734000  1
  H  H101  1  0.75220000  0.40245000  0.05962000  1
  H  H102  1  0.22845000  0.57350000  0.89231000  1
  H  H103  1  0.58556000  0.93631000  0.55096000  1
  H  H104  1  0.41444000  0.44904000  0.06369000  1
  H  H105  1  0.77155000  0.10769000  0.42650000  1
  H  H106  1  0.24780000  0.94038000  0.59755000  1
  H  H107  1  0.12340000  0.98266000  0.58981000  1
  H  H108  1  0.43909000  0.10362000  0.46899000  1
  H  H109  1  0.14074000  0.60715000  0.01734000  1
  H  H110  1  0.94295000  0.15004000  0.47654000  1
  H  H111  1  0.64925000  0.61465000  0.06369000  1
  H  H112  1  0.73483333  0.23483333  0.46966667  1
  H  H113  1  0.30742000  0.65717000  0.05962000  1
  H  H114  1  0.66453000  0.10362000  0.63463000  1
  H  H115  1  0.65025000  0.40245000  0.34283000  1
  H  H116  1  0.65495000  0.31881000  0.42650000  1
  H  H117  1  0.41165000  0.23488000  0.51416000  1
  H  H118  1  0.33614000  0.10769000  0.68119000  1
  H  H119  1  0.10251000  0.27928000  0.51416000  1
  H  H120  1  0.53359000  0.41019000  0.39285000  1
  H  H121  1  0.53359000  0.32650000  0.47654000  1
  H  H122  1  0.20709000  0.15004000  0.67350000  1
  H  H123  1  0.02990000  0.36537000  0.46899000  1
  H  H124  1  0.03460000  0.44904000  0.38535000  1
  H  H125  1  0.82323000  0.23488000  0.72072000  1
  La  La126  1  0.00000000  0.67755000  0.32245000  1
  La  La127  1  0.67755000  0.67755000  0.35510000  1
  La  La128  1  0.32245000  0.64490000  0.32245000  1
  O  O129  1  0.44439000  0.61888000  0.44056000  1
  O  O130  1  0.88688000  0.64683000  0.42245000  1
  O  O131  1  0.58995000  0.77775000  0.30962000  1
  O  O132  1  0.24005000  0.77562000  0.35317000  1
  O  O133  1  0.28033000  0.69038000  0.46813000  1
  O  O134  1  0.53557000  0.77562000  0.42245000  1
  O  O135  1  0.82551000  0.82168000  0.38112000  1
  O  O136  1  0.18780000  0.77775000  0.46813000  1
  O  O137  1  0.99617000  0.82168000  0.44056000  1
  O  O138  1  0.00383000  0.55944000  0.17832000  1
  O  O139  1  0.81220000  0.53187000  0.22225000  1
  O  O140  1  0.17449000  0.61888000  0.17832000  1
  O  O141  1  0.46443000  0.57755000  0.22438000  1
  O  O142  1  0.71967000  0.53187000  0.30962000  1
  O  O143  1  0.75995000  0.64683000  0.22438000  1
  O  O144  1  0.41005000  0.69038000  0.22225000  1
  O  O145  1  0.11312000  0.57755000  0.35317000  1
  O  O146  1  0.55561000  0.55944000  0.38112000  1
