# generated using pymatgen
data_AgH8(CN)2
_symmetry_space_group_name_H-M   'P 1'
_cell_length_a   6.26800000
_cell_length_b   7.41086198
_cell_length_c   7.41086198
_cell_angle_alpha   90.32254588
_cell_angle_beta   107.39069998
_cell_angle_gamma   107.39069998
_symmetry_Int_Tables_number   1
_chemical_formula_structural   AgH8(CN)2
_chemical_formula_sum   'Ag2 H16 C4 N4'
_cell_volume   311.78268136
_cell_formula_units_Z   2
loop_
 _symmetry_equiv_pos_site_id
 _symmetry_equiv_pos_as_xyz
  1  'x, y, z'
loop_
 _atom_site_type_symbol
 _atom_site_label
 _atom_site_symmetry_multiplicity
 _atom_site_fract_x
 _atom_site_fract_y
 _atom_site_fract_z
 _atom_site_occupancy
  Ag  Ag0  1  1.00000000  0.50000000  0.50000000  1
  Ag  Ag1  1  0.50000000  0.50000000  0.50000000  1
  C  C2  1  0.54400000  0.52150000  0.10450000  1
  C  C3  1  0.04400000  0.10450000  0.52150000  1
  C  C4  1  0.45600000  0.47850000  0.89550000  1
  C  C5  1  0.95600000  0.89550000  0.47850000  1
  H  H6  1  0.58010000  0.65710000  0.13490000  1
  H  H7  1  0.08010000  0.13490000  0.65710000  1
  H  H8  1  0.68920000  0.49110000  0.15330000  1
  H  H9  1  0.18920000  0.15330000  0.49110000  1
  H  H10  1  0.24090000  0.44100000  0.15160000  1
  H  H11  1  0.74090000  0.15160000  0.44100000  1
  H  H12  1  0.64560000  0.70590000  0.81790000  1
  H  H13  1  0.14560000  0.81790000  0.70590000  1
  H  H14  1  0.35440000  0.29410000  0.18210000  1
  H  H15  1  0.85440000  0.18210000  0.29410000  1
  H  H16  1  0.75910000  0.55900000  0.84840000  1
  H  H17  1  0.25910000  0.84840000  0.55900000  1
  H  H18  1  0.31080000  0.50890000  0.84670000  1
  H  H19  1  0.81080000  0.84670000  0.50890000  1
  H  H20  1  0.41990000  0.34290000  0.86510000  1
  H  H21  1  0.91990000  0.86510000  0.34290000  1
  N  N22  1  0.37960000  0.41980000  0.20240000  1
  N  N23  1  0.87960000  0.20240000  0.41980000  1
  N  N24  1  0.62040000  0.58020000  0.79760000  1
  N  N25  1  0.12040000  0.79760000  0.58020000  1
