# generated using pymatgen
data_InC16(NO)8
_symmetry_space_group_name_H-M   'P 1'
_cell_length_a   11.55260000
_cell_length_b   15.68300000
_cell_length_c   15.68300000
_cell_angle_alpha   120.00000000
_cell_angle_beta   90.00000000
_cell_angle_gamma   90.00000000
_symmetry_Int_Tables_number   1
_chemical_formula_structural   InC16(NO)8
_chemical_formula_sum   'In3 C48 N24 O24'
_cell_volume   2460.75656881
_cell_formula_units_Z   3
loop_
 _symmetry_equiv_pos_site_id
 _symmetry_equiv_pos_as_xyz
  1  'x, y, z'
loop_
 _atom_site_type_symbol
 _atom_site_label
 _atom_site_symmetry_multiplicity
 _atom_site_fract_x
 _atom_site_fract_y
 _atom_site_fract_z
 _atom_site_occupancy
  In  In0  1  0.33333333  1.00000000  0.50000000  1
  In  In1  1  1.00000000  0.50000000  0.50000000  1
  In  In2  1  0.66666667  0.50000000  0.00000000  1
  C  C3  1  0.17700000  0.87420000  0.38110000  1
  C  C4  1  0.48967000  0.87420000  0.49310000  1
  C  C5  1  0.04650000  0.82380000  0.23850000  1
  C  C6  1  0.62017000  0.82380000  0.58530000  1
  C  C7  1  0.08960000  0.80820000  0.31200000  1
  C  C8  1  0.57707000  0.80820000  0.49620000  1
  C  C9  1  0.95350000  0.76150000  0.17620000  1
  C  C10  1  0.71317000  0.76150000  0.58530000  1
  C  C11  1  0.04360000  0.73260000  0.32590000  1
  C  C12  1  0.62307000  0.73260000  0.40670000  1
  C  C13  1  0.91040000  0.68800000  0.19180000  1
  C  C14  1  0.75627000  0.68800000  0.49620000  1
  C  C15  1  0.95640000  0.67410000  0.26740000  1
  C  C16  1  0.71027000  0.67410000  0.40670000  1
  C  C17  1  0.82300000  0.61890000  0.12580000  1
  C  C18  1  0.84367000  0.61890000  0.49310000  1
  C  C19  1  0.37693000  0.59330000  0.26740000  1
  C  C20  1  0.28973000  0.59330000  0.32590000  1
  C  C21  1  0.28683000  0.58530000  0.76150000  1
  C  C22  1  0.37983000  0.58530000  0.82380000  1
  C  C23  1  0.51033000  0.50690000  0.12580000  1
  C  C24  1  0.15633000  0.50690000  0.38110000  1
  C  C25  1  0.42293000  0.50380000  0.19180000  1
  C  C26  1  0.24373000  0.50380000  0.31200000  1
  C  C27  1  0.24373000  0.49620000  0.68800000  1
  C  C28  1  0.42293000  0.49620000  0.80820000  1
  C  C29  1  0.15633000  0.49310000  0.61890000  1
  C  C30  1  0.51033000  0.49310000  0.87420000  1
  C  C31  1  0.37983000  0.41470000  0.17620000  1
  C  C32  1  0.28683000  0.41470000  0.23850000  1
  C  C33  1  0.28973000  0.40670000  0.67410000  1
  C  C34  1  0.37693000  0.40670000  0.73260000  1
  C  C35  1  0.84367000  0.38110000  0.50690000  1
  C  C36  1  0.82300000  0.38110000  0.87420000  1
  C  C37  1  0.71027000  0.32590000  0.59330000  1
  C  C38  1  0.95640000  0.32590000  0.73260000  1
  C  C39  1  0.75627000  0.31200000  0.50380000  1
  C  C40  1  0.91040000  0.31200000  0.80820000  1
  C  C41  1  0.62307000  0.26740000  0.59330000  1
  C  C42  1  0.04360000  0.26740000  0.67410000  1
  C  C43  1  0.71317000  0.23850000  0.41470000  1
  C  C44  1  0.95350000  0.23850000  0.82380000  1
  C  C45  1  0.57707000  0.19180000  0.50380000  1
  C  C46  1  0.08960000  0.19180000  0.68800000  1
  C  C47  1  0.62017000  0.17620000  0.41470000  1
  C  C48  1  0.04650000  0.17620000  0.76150000  1
  C  C49  1  0.48967000  0.12580000  0.50690000  1
  C  C50  1  0.17700000  0.12580000  0.61890000  1
  N  N51  1  0.08700000  0.89760000  0.21860000  1
  N  N52  1  0.57967000  0.89760000  0.67900000  1
  N  N53  1  0.91300000  0.78140000  0.10240000  1
  N  N54  1  0.75367000  0.78140000  0.67900000  1
  N  N55  1  0.58267000  0.71300000  0.31310000  1
  N  N56  1  0.08400000  0.71300000  0.39990000  1
  N  N57  1  0.41733000  0.68690000  0.28700000  1
  N  N58  1  0.24933000  0.68690000  0.39990000  1
  N  N59  1  0.24633000  0.67900000  0.78140000  1
  N  N60  1  0.42033000  0.67900000  0.89760000  1
  N  N61  1  0.91600000  0.60010000  0.28700000  1
  N  N62  1  0.75067000  0.60010000  0.31310000  1
  N  N63  1  0.75067000  0.39990000  0.68690000  1
  N  N64  1  0.91600000  0.39990000  0.71300000  1
  N  N65  1  0.42033000  0.32100000  0.10240000  1
  N  N66  1  0.24633000  0.32100000  0.21860000  1
  N  N67  1  0.24933000  0.31310000  0.60010000  1
  N  N68  1  0.41733000  0.31310000  0.71300000  1
  N  N69  1  0.08400000  0.28700000  0.60010000  1
  N  N70  1  0.58267000  0.28700000  0.68690000  1
  N  N71  1  0.75367000  0.21860000  0.32100000  1
  N  N72  1  0.91300000  0.21860000  0.89760000  1
  N  N73  1  0.57967000  0.10240000  0.32100000  1
  N  N74  1  0.08700000  0.10240000  0.78140000  1
  O  O75  1  0.22430000  0.93450000  0.36250000  1
  O  O76  1  0.44237000  0.93450000  0.57200000  1
  O  O77  1  0.45777000  0.87180000  0.41500000  1
  O  O78  1  0.20890000  0.87180000  0.45680000  1
  O  O79  1  0.77570000  0.63750000  0.06550000  1
  O  O80  1  0.89097000  0.63750000  0.57200000  1
  O  O81  1  0.54223000  0.58500000  0.12820000  1
  O  O82  1  0.12443000  0.58500000  0.45680000  1
  O  O83  1  0.10903000  0.57200000  0.63750000  1
  O  O84  1  0.55763000  0.57200000  0.93450000  1
  O  O85  1  0.79110000  0.54320000  0.12820000  1
  O  O86  1  0.87557000  0.54320000  0.41500000  1
  O  O87  1  0.87557000  0.45680000  0.58500000  1
  O  O88  1  0.79110000  0.45680000  0.87180000  1
  O  O89  1  0.55763000  0.42800000  0.06550000  1
  O  O90  1  0.10903000  0.42800000  0.36250000  1
  O  O91  1  0.12443000  0.41500000  0.54320000  1
  O  O92  1  0.54223000  0.41500000  0.87180000  1
  O  O93  1  0.89097000  0.36250000  0.42800000  1
  O  O94  1  0.77570000  0.36250000  0.93450000  1
  O  O95  1  0.20890000  0.12820000  0.54320000  1
  O  O96  1  0.45777000  0.12820000  0.58500000  1
  O  O97  1  0.44237000  0.06550000  0.42800000  1
  O  O98  1  0.22430000  0.06550000  0.63750000  1
