# generated using pymatgen
data_CoH9C11(NO)2
_symmetry_space_group_name_H-M   'P 1'
_cell_length_a   8.13090000
_cell_length_b   10.51080000
_cell_length_c   11.41941623
_cell_angle_alpha   62.59884292
_cell_angle_beta   84.40844629
_cell_angle_gamma   77.77700000
_symmetry_Int_Tables_number   1
_chemical_formula_structural   CoH9C11(NO)2
_chemical_formula_sum   'Co2 H18 C22 N4 O4'
_cell_volume   846.79460609
_cell_formula_units_Z   2
loop_
 _symmetry_equiv_pos_site_id
 _symmetry_equiv_pos_as_xyz
  1  'x, y, z'
loop_
 _atom_site_type_symbol
 _atom_site_label
 _atom_site_symmetry_multiplicity
 _atom_site_fract_x
 _atom_site_fract_y
 _atom_site_fract_z
 _atom_site_occupancy
  Co  Co0  1  0.51007000  0.80417000  0.50758000  1
  Co  Co1  1  0.01007000  0.31175000  0.49242000  1
  H  H2  1  0.96330000  0.99040000  0.61620000  1
  H  H3  1  0.96190000  0.78810000  0.81440000  1
  H  H4  1  0.91650000  0.62670000  0.99860000  1
  H  H5  1  0.91220000  0.43010000  0.20100000  1
  H  H6  1  0.79760000  0.60570000  0.45840000  1
  H  H7  1  0.60140000  0.99120000  0.83000000  1
  H  H8  1  0.59450000  0.98690000  0.63500000  1
  H  H9  1  0.58100000  0.99110000  0.21600000  1
  H  H10  1  0.57700000  0.00210000  0.01120000  1
  H  H11  1  0.46330000  0.60660000  0.38380000  1
  H  H12  1  0.46190000  0.60250000  0.18560000  1
  H  H13  1  0.41650000  0.62530000  0.00140000  1
  H  H14  1  0.41220000  0.63110000  0.79900000  1
  H  H15  1  0.29760000  0.06410000  0.54160000  1
  H  H16  1  0.10140000  0.82120000  0.17000000  1
  H  H17  1  0.09450000  0.62190000  0.36500000  1
  H  H18  1  0.08100000  0.20710000  0.78400000  1
  H  H19  1  0.07700000  0.01330000  0.98880000  1
  C  C20  1  0.98630000  0.99497000  0.69226000  1
  C  C21  1  0.98440000  0.87279000  0.81122000  1
  C  C22  1  0.95400000  0.62833000  0.07214000  1
  C  C23  1  0.95190000  0.50961000  0.19498000  1
  C  C24  1  0.77470000  0.54343000  0.54514000  1
  C  C25  1  0.56290000  0.91562000  0.82676000  1
  C  C26  1  0.55810000  0.91248000  0.70984000  1
  C  C27  1  0.55430000  0.91271000  0.20958000  1
  C  C28  1  0.55330000  0.92003000  0.08534000  1
  C  C29  1  0.51680000  0.80470000  0.07220000  1
  C  C30  1  0.51100000  0.80705000  0.94150000  1
  C  C31  1  0.48630000  0.68723000  0.30774000  1
  C  C32  1  0.48440000  0.68401000  0.18878000  1
  C  C33  1  0.45400000  0.70047000  0.92786000  1
  C  C34  1  0.45190000  0.70459000  0.80502000  1
  C  C35  1  0.27470000  0.08857000  0.45486000  1
  C  C36  1  0.06290000  0.74238000  0.17324000  1
  C  C37  1  0.05810000  0.62232000  0.29016000  1
  C  C38  1  0.05430000  0.12229000  0.79042000  1
  C  C39  1  0.05330000  0.00537000  0.91466000  1
  C  C40  1  0.01680000  0.87690000  0.92780000  1
  C  C41  1  0.01100000  0.74855000  0.05850000  1
  N  N42  1  0.51920000  0.79991000  0.32038000  1
  N  N43  1  0.50350000  0.80761000  0.69578000  1
  N  N44  1  0.01920000  0.12029000  0.67962000  1
  N  N45  1  0.00350000  0.50339000  0.30422000  1
  O  O46  1  0.86120000  0.41729000  0.59502000  1
  O  O47  1  0.65950000  0.59201000  0.60338000  1
  O  O48  1  0.36120000  0.01231000  0.40498000  1
  O  O49  1  0.15950000  0.19539000  0.39662000  1
