# generated using pymatgen
data_Er4H18C57(O4F3)6
_symmetry_space_group_name_H-M   'P 1'
_cell_length_a   8.07220000
_cell_length_b   21.22470000
_cell_length_c   22.78990000
_cell_angle_alpha   82.62200000
_cell_angle_beta   82.40400000
_cell_angle_gamma   80.07900000
_symmetry_Int_Tables_number   1
_chemical_formula_structural   Er4H18C57(O4F3)6
_chemical_formula_sum   'Er8 H36 C114 O48 F36'
_cell_volume   3790.07480231
_cell_formula_units_Z   2
loop_
 _symmetry_equiv_pos_site_id
 _symmetry_equiv_pos_as_xyz
  1  'x, y, z'
loop_
 _atom_site_type_symbol
 _atom_site_label
 _atom_site_symmetry_multiplicity
 _atom_site_fract_x
 _atom_site_fract_y
 _atom_site_fract_z
 _atom_site_occupancy
  Er  Er0  1  0.19764000  0.57546000  0.71577000  1
  Er  Er1  1  0.23960000  0.09361000  0.03639000  1
  Er  Er2  1  0.38652000  0.47110000  0.43310000  1
  Er  Er3  1  0.46439000  0.24905000  0.09572000  1
  Er  Er4  1  0.53561000  0.75095000  0.90428000  1
  Er  Er5  1  0.61348000  0.52890000  0.56690000  1
  Er  Er6  1  0.76040000  0.90639000  0.96361000  1
  Er  Er7  1  0.80236000  0.42454000  0.28423000  1
  H  H8  1  0.01920000  0.68850000  0.39010000  1
  H  H9  1  0.02140000  0.73020000  0.58440000  1
  H  H10  1  0.03040000  0.25250000  0.84930000  1
  H  H11  1  0.03470000  0.07230000  0.21540000  1
  H  H12  1  0.10090000  0.08830000  0.74660000  1
  H  H13  1  0.13530000  0.21730000  0.57810000  1
  H  H14  1  0.15490000  0.11520000  0.83680000  1
  H  H15  1  0.22640000  0.75400000  0.68560000  1
  H  H16  1  0.23130000  0.25440000  0.76710000  1
  H  H17  1  0.23550000  0.13660000  0.35120000  1
  H  H18  1  0.28160000  0.85620000  0.64930000  1
  H  H19  1  0.33780000  0.18670000  0.26040000  1
  H  H20  1  0.33840000  0.28150000  0.43100000  1
  H  H21  1  0.35150000  0.91040000  0.78310000  1
  H  H22  1  0.40170000  0.77020000  0.12500000  1
  H  H23  1  0.43850000  0.35510000  0.74680000  1
  H  H24  1  0.44410000  0.78670000  0.36030000  1
  H  H25  1  0.47010000  0.28550000  0.56160000  1
  H  H26  1  0.52990000  0.71450000  0.43840000  1
  H  H27  1  0.55590000  0.21330000  0.63970000  1
  H  H28  1  0.56150000  0.64490000  0.25320000  1
  H  H29  1  0.59830000  0.22980000  0.87500000  1
  H  H30  1  0.64850000  0.08960000  0.21690000  1
  H  H31  1  0.66160000  0.71850000  0.56900000  1
  H  H32  1  0.66220000  0.81330000  0.73960000  1
  H  H33  1  0.71840000  0.14380000  0.35070000  1
  H  H34  1  0.76450000  0.86340000  0.64880000  1
  H  H35  1  0.76870000  0.74560000  0.23290000  1
  H  H36  1  0.77360000  0.24600000  0.31440000  1
  H  H37  1  0.84510000  0.88480000  0.16320000  1
  H  H38  1  0.86470000  0.78270000  0.42190000  1
  H  H39  1  0.89910000  0.91170000  0.25340000  1
  H  H40  1  0.96530000  0.92770000  0.78460000  1
  H  H41  1  0.96960000  0.74750000  0.15070000  1
  H  H42  1  0.97860000  0.26980000  0.41560000  1
  H  H43  1  0.98080000  0.31150000  0.60990000  1
  C  C44  1  0.01310000  0.16841000  0.21232000  1
  C  C45  1  0.01670000  0.69635000  0.42941000  1
  C  C46  1  0.01780000  0.72129000  0.54571000  1
  C  C47  1  0.01840000  0.01360000  0.67392000  1
  C  C48  1  0.02100000  0.89257000  0.76539000  1
  C  C49  1  0.05860000  0.22660000  0.96336000  1
  C  C50  1  0.07030000  0.70918000  0.78657000  1
  C  C51  1  0.07120000  0.77801000  0.75888000  1
  C  C52  1  0.07700000  0.24720000  0.55156000  1
  C  C53  1  0.08310000  0.23558000  0.49182000  1
  C  C54  1  0.09030000  0.12604000  0.46289000  1
  C  C55  1  0.10680000  0.65149000  0.46817000  1
  C  C56  1  0.11280000  0.66539000  0.52601000  1
  C  C57  1  0.13550000  0.90297000  0.71528000  1
  C  C58  1  0.14430000  0.17359000  0.16011000  1
  C  C59  1  0.14470000  0.24634000  0.85454000  1
  C  C60  1  0.16020000  0.05761000  0.77232000  1
  C  C61  1  0.17400000  0.97220000  0.69920000  1
  C  C62  1  0.17680000  0.78863000  0.70647000  1
  C  C63  1  0.18120000  0.58682000  0.45026000  1
  C  C64  1  0.19340000  0.07386000  0.82636000  1
  C  C65  1  0.19370000  0.23568000  0.91196000  1
  C  C66  1  0.19780000  0.17912000  0.46369000  1
  C  C67  1  0.21020000  0.85021000  0.68440000  1
  C  C68  1  0.21530000  0.99573000  0.75665000  1
  C  C69  1  0.21820000  0.62124000  0.56961000  1
  C  C70  1  0.25790000  0.75450000  0.23503000  1
  C  C71  1  0.26550000  0.24775000  0.80513000  1
  C  C72  1  0.27270000  0.20523000  0.40114000  1
  C  C73  1  0.27420000  0.17568000  0.34927000  1
  C  C74  1  0.28390000  0.02854000  0.86485000  1
  C  C75  1  0.28410000  0.04590000  0.92683000  1
  C  C76  1  0.31040000  0.95129000  0.79444000  1
  C  C77  1  0.32990000  0.97761000  0.65293000  1
  C  C78  1  0.33520000  0.20648000  0.29471000  1
  C  C79  1  0.33610000  0.26267000  0.39651000  1
  C  C80  1  0.34550000  0.45443000  0.67317000  1
  C  C81  1  0.34560000  0.96615000  0.84859000  1
  C  C82  1  0.35100000  0.14988000  0.49920000  1
  C  C83  1  0.36350000  0.23167000  0.91890000  1
  C  C84  1  0.37980000  0.40847000  0.54995000  1
  C  C85  1  0.39110000  0.26437000  0.28958000  1
  C  C86  1  0.39630000  0.29302000  0.34181000  1
  C  C87  1  0.40730000  0.38567000  0.66114000  1
  C  C88  1  0.41500000  0.84077000  0.25419000  1
  C  C89  1  0.41510000  0.36441000  0.60470000  1
  C  C90  1  0.41730000  0.22762000  0.97917000  1
  C  C91  1  0.42470000  0.30102000  0.22900000  1
  C  C92  1  0.43360000  0.91464000  0.88964000  1
  C  C93  1  0.43400000  0.76849000  0.24378000  1
  C  C94  1  0.43780000  0.23933000  0.81179000  1
  C  C95  1  0.44960000  0.34139000  0.70915000  1
  C  C96  1  0.46780000  0.29986000  0.59860000  1
  C  C97  1  0.46780000  0.35399000  0.34122000  1
  C  C98  1  0.48280000  0.74383000  0.35448000  1
  C  C99  1  0.48480000  0.23308000  0.86961000  1
  C  C100  1  0.49120000  0.72346000  0.29788000  1
  C  C101  1  0.50880000  0.27654000  0.70212000  1
  C  C102  1  0.51520000  0.76692000  0.13039000  1
  C  C103  1  0.51720000  0.25617000  0.64552000  1
  C  C104  1  0.53220000  0.64601000  0.65878000  1
  C  C105  1  0.53220000  0.70014000  0.40140000  1
  C  C106  1  0.55040000  0.65861000  0.29085000  1
  C  C107  1  0.56220000  0.76067000  0.18821000  1
  C  C108  1  0.56600000  0.23151000  0.75622000  1
  C  C109  1  0.56640000  0.08536000  0.11036000  1
  C  C110  1  0.57530000  0.69898000  0.77100000  1
  C  C111  1  0.58270000  0.77238000  0.02083000  1
  C  C112  1  0.58490000  0.63559000  0.39530000  1
  C  C113  1  0.58500000  0.15923000  0.74581000  1
  C  C114  1  0.59270000  0.61433000  0.33886000  1
  C  C115  1  0.60370000  0.70698000  0.65819000  1
  C  C116  1  0.60890000  0.73563000  0.71042000  1
  C  C117  1  0.62020000  0.59153000  0.45005000  1
  C  C118  1  0.63650000  0.76833000  0.08110000  1
  C  C119  1  0.64900000  0.85012000  0.50080000  1
  C  C120  1  0.65440000  0.03385000  0.15141000  1
  C  C121  1  0.65450000  0.54557000  0.32683000  1
  C  C122  1  0.66390000  0.73733000  0.60349000  1
  C  C123  1  0.66480000  0.79352000  0.70529000  1
  C  C124  1  0.67010000  0.02239000  0.34707000  1
  C  C125  1  0.68960000  0.04871000  0.20556000  1
  C  C126  1  0.71590000  0.95410000  0.07317000  1
  C  C127  1  0.71610000  0.97146000  0.13515000  1
  C  C128  1  0.72580000  0.82432000  0.65073000  1
  C  C129  1  0.72730000  0.79477000  0.59886000  1
  C  C130  1  0.73450000  0.75225000  0.19487000  1
  C  C131  1  0.74210000  0.24550000  0.76497000  1
  C  C132  1  0.78180000  0.37876000  0.43039000  1
  C  C133  1  0.78470000  0.00427000  0.24335000  1
  C  C134  1  0.78980000  0.14979000  0.31560000  1
  C  C135  1  0.80220000  0.82088000  0.53631000  1
  C  C136  1  0.80630000  0.76432000  0.08804000  1
  C  C137  1  0.80660000  0.92614000  0.17364000  1
  C  C138  1  0.81880000  0.41318000  0.54974000  1
  C  C139  1  0.82320000  0.21137000  0.29353000  1
  C  C140  1  0.82600000  0.02780000  0.30080000  1
  C  C141  1  0.83980000  0.94239000  0.22768000  1
  C  C142  1  0.85530000  0.75366000  0.14546000  1
  C  C143  1  0.85570000  0.82641000  0.83989000  1
  C  C144  1  0.86450000  0.09703000  0.28472000  1
  C  C145  1  0.88720000  0.33461000  0.47399000  1
  C  C146  1  0.89320000  0.34851000  0.53183000  1
  C  C147  1  0.90970000  0.87396000  0.53711000  1
  C  C148  1  0.91690000  0.76442000  0.50818000  1
  C  C149  1  0.92300000  0.75280000  0.44844000  1
  C  C150  1  0.92880000  0.22199000  0.24112000  1
  C  C151  1  0.92970000  0.29082000  0.21343000  1
  C  C152  1  0.94140000  0.77340000  0.03664000  1
  C  C153  1  0.97900000  0.10743000  0.23461000  1
  C  C154  1  0.98160000  0.98640000  0.32608000  1
  C  C155  1  0.98220000  0.27871000  0.45429000  1
  C  C156  1  0.98330000  0.30365000  0.57059000  1
  C  C157  1  0.98690000  0.83159000  0.78768000  1
  O  O158  1  0.04700000  0.72679000  0.02162000  1
  O  O159  1  0.05570000  0.16899000  0.98635000  1
  O  O160  1  0.06770000  0.66702000  0.75321000  1
  O  O161  1  0.08020000  0.69832000  0.84209000  1
  O  O162  1  0.14240000  0.60690000  0.62102000  1
  O  O163  1  0.16020000  0.13093000  0.12394000  1
  O  O164  1  0.16510000  0.03021000  0.96514000  1
  O  O165  1  0.17450000  0.53923000  0.48985000  1
  O  O166  1  0.20410000  0.46564000  0.70424000  1
  O  O167  1  0.23650000  0.21551000  0.15647000  1
  O  O168  1  0.25120000  0.57880000  0.39781000  1
  O  O169  1  0.30720000  0.39153000  0.51070000  1
  O  O170  1  0.35020000  0.19276000  0.02302000  1
  O  O171  1  0.37120000  0.60337000  0.55293000  1
  O  O172  1  0.37270000  0.36072000  0.22396000  1
  O  O173  1  0.37860000  0.39709000  0.36927000  1
  O  O174  1  0.38800000  0.64430000  0.68610000  1
  O  O175  1  0.38900000  0.07858000  0.93963000  1
  O  O176  1  0.43080000  0.49892000  0.65658000  1
  O  O177  1  0.43580000  0.46230000  0.54172000  1
  O  O178  1  0.44100000  0.85763000  0.87908000  1
  O  O179  1  0.47720000  0.73800000  0.01168000  1
  O  O180  1  0.49040000  0.93187000  0.93352000  1
  O  O181  1  0.49900000  0.26989000  0.18703000  1
  O  O182  1  0.50100000  0.73011000  0.81297000  1
  O  O183  1  0.50960000  0.06813000  0.06648000  1
  O  O184  1  0.52280000  0.26200000  0.98832000  1
  O  O185  1  0.55900000  0.14237000  0.12092000  1
  O  O186  1  0.56420000  0.53770000  0.45828000  1
  O  O187  1  0.56920000  0.50108000  0.34342000  1
  O  O188  1  0.61100000  0.92142000  0.06037000  1
  O  O189  1  0.61200000  0.35570000  0.31390000  1
  O  O190  1  0.62140000  0.60291000  0.63073000  1
  O  O191  1  0.62730000  0.63928000  0.77604000  1
  O  O192  1  0.62880000  0.39663000  0.44707000  1
  O  O193  1  0.64980000  0.80724000  0.97698000  1
  O  O194  1  0.69280000  0.60847000  0.48930000  1
  O  O195  1  0.74880000  0.42120000  0.60219000  1
  O  O196  1  0.76350000  0.78449000  0.84353000  1
  O  O197  1  0.79590000  0.53436000  0.29576000  1
  O  O198  1  0.82550000  0.46077000  0.51015000  1
  O  O199  1  0.83490000  0.96979000  0.03486000  1
  O  O200  1  0.83980000  0.86907000  0.87606000  1
  O  O201  1  0.85760000  0.39310000  0.37898000  1
  O  O202  1  0.91980000  0.30168000  0.15791000  1
  O  O203  1  0.93230000  0.33298000  0.24679000  1
  O  O204  1  0.94430000  0.83101000  0.01365000  1
  O  O205  1  0.95300000  0.27321000  0.97838000  1
  F  F206  1  0.00940000  0.11177000  0.51702000  1
  F  F207  1  0.02850000  0.85472000  0.57399000  1
  F  F208  1  0.03020000  0.01382000  0.36904000  1
  F  F209  1  0.04310000  0.07288000  0.65079000  1
  F  F210  1  0.11360000  0.97953000  0.28353000  1
  F  F211  1  0.15670000  0.75094000  0.28660000  1
  F  F212  1  0.17340000  0.80132000  0.19836000  1
  F  F213  1  0.18100000  0.07157000  0.44608000  1
  F  F214  1  0.26770000  0.69987000  0.21206000  1
  F  F215  1  0.28570000  0.85753000  0.29544000  1
  F  F216  1  0.30280000  0.96761000  0.59861000  1
  F  F217  1  0.30470000  0.11865000  0.55148000  1
  F  F218  1  0.37630000  0.03543000  0.64858000  1
  F  F219  1  0.38880000  0.87993000  0.20434000  1
  F  F220  1  0.43340000  0.19593000  0.51014000  1
  F  F221  1  0.44470000  0.14690000  0.72759000  1
  F  F222  1  0.46260000  0.10933000  0.46826000  1
  F  F223  1  0.46340000  0.93498000  0.66857000  1
  F  F224  1  0.53660000  0.06502000  0.33143000  1
  F  F225  1  0.53740000  0.89067000  0.53174000  1
  F  F226  1  0.55530000  0.85310000  0.27241000  1
  F  F227  1  0.56660000  0.80407000  0.48986000  1
  F  F228  1  0.61120000  0.12007000  0.79566000  1
  F  F229  1  0.62370000  0.96457000  0.35142000  1
  F  F230  1  0.69530000  0.88135000  0.44852000  1
  F  F231  1  0.69720000  0.03239000  0.40139000  1
  F  F232  1  0.71430000  0.14247000  0.70456000  1
  F  F233  1  0.73230000  0.30013000  0.78794000  1
  F  F234  1  0.81900000  0.92843000  0.55392000  1
  F  F235  1  0.82660000  0.19868000  0.80164000  1
  F  F236  1  0.84330000  0.24906000  0.71340000  1
  F  F237  1  0.88640000  0.02047000  0.71647000  1
  F  F238  1  0.95690000  0.92712000  0.34921000  1
  F  F239  1  0.96980000  0.98618000  0.63096000  1
  F  F240  1  0.97150000  0.14528000  0.42601000  1
  F  F241  1  0.99060000  0.88823000  0.48298000  1
