# generated using pymatgen
data_Na2Cu12P5H26W30C36(N14O47)2
_symmetry_space_group_name_H-M   'P 1'
_cell_length_a   18.14855494
_cell_length_b   18.14855494
_cell_length_c   28.61800000
_cell_angle_alpha   73.34857225
_cell_angle_beta   73.34857225
_cell_angle_gamma   71.83967309
_symmetry_Int_Tables_number   1
_chemical_formula_structural   Na2Cu12P5H26W30C36(N14O47)2
_chemical_formula_sum   'Na4 Cu24 P10 H52 W60 C72 N56 O188'
_cell_volume   8376.98471845
_cell_formula_units_Z   2
loop_
 _symmetry_equiv_pos_site_id
 _symmetry_equiv_pos_as_xyz
  1  'x, y, z'
loop_
 _atom_site_type_symbol
 _atom_site_label
 _atom_site_symmetry_multiplicity
 _atom_site_fract_x
 _atom_site_fract_y
 _atom_site_fract_z
 _atom_site_occupancy
  C  C0  1  0.17010000  0.92410000  0.94810000  1
  C  C1  1  0.92410000  0.17010000  0.44810000  1
  C  C2  1  0.07820000  0.02220000  0.92750000  1
  C  C3  1  0.02220000  0.07820000  0.42750000  1
  C  C4  1  0.13910000  0.96490000  0.40730000  1
  C  C5  1  0.96490000  0.13910000  0.90730000  1
  C  C6  1  0.24110000  0.86630000  0.96250000  1
  C  C7  1  0.86630000  0.24110000  0.46250000  1
  C  C8  1  0.34190000  0.79750000  0.99040000  1
  C  C9  1  0.79750000  0.34190000  0.49040000  1
  C  C10  1  0.10530000  0.04230000  0.41080000  1
  C  C11  1  0.04230000  0.10530000  0.91080000  1
  C  C12  1  0.21620000  0.93820000  0.39130000  1
  C  C13  1  0.93820000  0.21620000  0.89130000  1
  C  C14  1  0.55420000  0.61000000  0.43510000  1
  C  C15  1  0.61000000  0.55420000  0.93510000  1
  C  C16  1  0.50240000  0.73280000  0.43240000  1
  C  C17  1  0.73280000  0.50240000  0.93240000  1
  C  C18  1  0.43910000  0.79830000  0.45030000  1
  C  C19  1  0.79830000  0.43910000  0.95030000  1
  C  C20  1  0.19280000  0.04480000  0.51940000  1
  C  C21  1  0.04480000  0.19280000  0.01940000  1
  C  C22  1  0.26130000  0.99210000  0.37460000  1
  C  C23  1  0.99210000  0.26130000  0.87460000  1
  C  C24  1  0.35980000  0.89960000  0.47110000  1
  C  C25  1  0.89960000  0.35980000  0.97110000  1
  C  C26  1  0.31500000  0.97880000  0.47990000  1
  C  C27  1  0.97880000  0.31500000  0.97990000  1
  C  C28  1  0.22730000  0.07050000  0.37540000  1
  C  C29  1  0.07050000  0.22730000  0.87540000  1
  C  C30  1  0.21640000  0.11580000  0.50050000  1
  C  C31  1  0.11580000  0.21640000  0.00050000  1
  C  C32  1  0.34290000  0.04610000  0.46260000  1
  C  C33  1  0.04610000  0.34290000  0.96260000  1
  C  C34  1  0.29140000  0.11520000  0.47330000  1
  C  C35  1  0.11520000  0.29140000  0.97330000  1
  C  C36  1  0.70860000  0.88480000  0.52670000  1
  C  C37  1  0.88480000  0.70860000  0.02670000  1
  C  C38  1  0.65710000  0.95390000  0.53740000  1
  C  C39  1  0.95390000  0.65710000  0.03740000  1
  C  C40  1  0.78360000  0.88420000  0.49950000  1
  C  C41  1  0.88420000  0.78360000  0.99950000  1
  C  C42  1  0.77270000  0.92950000  0.62460000  1
  C  C43  1  0.92950000  0.77270000  0.12460000  1
  C  C44  1  0.68500000  0.02120000  0.52010000  1
  C  C45  1  0.02120000  0.68500000  0.02010000  1
  C  C46  1  0.64020000  0.10040000  0.52890000  1
  C  C47  1  0.10040000  0.64020000  0.02890000  1
  C  C48  1  0.73870000  0.00790000  0.62540000  1
  C  C49  1  0.00790000  0.73870000  0.12540000  1
  C  C50  1  0.80720000  0.95520000  0.48060000  1
  C  C51  1  0.95520000  0.80720000  0.98060000  1
  C  C52  1  0.56090000  0.20170000  0.54970000  1
  C  C53  1  0.20170000  0.56090000  0.04970000  1
  C  C54  1  0.49760000  0.26720000  0.56760000  1
  C  C55  1  0.26720000  0.49760000  0.06760000  1
  C  C56  1  0.44580000  0.39000000  0.56490000  1
  C  C57  1  0.39000000  0.44580000  0.06490000  1
  C  C58  1  0.78380000  0.06180000  0.60870000  1
  C  C59  1  0.06180000  0.78380000  0.10870000  1
  C  C60  1  0.89470000  0.95770000  0.58920000  1
  C  C61  1  0.95770000  0.89470000  0.08920000  1
  C  C62  1  0.65810000  0.20250000  0.00960000  1
  C  C63  1  0.20250000  0.65810000  0.50960000  1
  C  C64  1  0.75890000  0.13370000  0.03750000  1
  C  C65  1  0.13370000  0.75890000  0.53750000  1
  C  C66  1  0.86090000  0.03510000  0.59270000  1
  C  C67  1  0.03510000  0.86090000  0.09270000  1
  C  C68  1  0.92180000  0.97780000  0.07250000  1
  C  C69  1  0.97780000  0.92180000  0.57250000  1
  C  C70  1  0.82990000  0.07590000  0.05190000  1
  C  C71  1  0.07590000  0.82990000  0.55190000  1
  Cu  Cu72  1  0.37159000  0.66535000  0.48804000  1
  Cu  Cu73  1  0.66535000  0.37159000  0.98804000  1
  Cu  Cu74  1  0.22074000  0.86696000  0.53222000  1
  Cu  Cu75  1  0.86696000  0.22074000  0.03222000  1
  Cu  Cu76  1  0.20844000  0.08836000  0.89897000  1
  Cu  Cu77  1  0.08836000  0.20844000  0.39897000  1
  Cu  Cu78  1  0.33622000  0.96894000  0.97338000  1
  Cu  Cu79  1  0.96894000  0.33622000  0.47338000  1
  Cu  Cu80  1  0.61357000  0.72697000  0.88938000  1
  Cu  Cu81  1  0.72697000  0.61357000  0.38938000  1
  Cu  Cu82  1  0.63697000  0.80699000  0.36189000  1
  Cu  Cu83  1  0.80699000  0.63697000  0.86189000  1
  Cu  Cu84  1  0.36303000  0.19301000  0.63811000  1
  Cu  Cu85  1  0.19301000  0.36303000  0.13811000  1
  Cu  Cu86  1  0.38643000  0.27303000  0.11062000  1
  Cu  Cu87  1  0.27303000  0.38643000  0.61062000  1
  Cu  Cu88  1  0.66378000  0.03106000  0.02662000  1
  Cu  Cu89  1  0.03106000  0.66378000  0.52662000  1
  Cu  Cu90  1  0.79156000  0.91164000  0.10103000  1
  Cu  Cu91  1  0.91164000  0.79156000  0.60103000  1
  Cu  Cu92  1  0.77926000  0.13304000  0.46778000  1
  Cu  Cu93  1  0.13304000  0.77926000  0.96778000  1
  Cu  Cu94  1  0.62841000  0.33465000  0.51196000  1
  Cu  Cu95  1  0.33465000  0.62841000  0.01196000  1
  H  H96  1  0.03980000  0.99600000  0.56380000  1
  H  H97  1  0.99600000  0.03980000  0.06380000  1
  H  H98  1  0.10670000  0.92990000  0.41650000  1
  H  H99  1  0.92990000  0.10670000  0.91650000  1
  H  H100  1  0.55510000  0.56330000  0.94190000  1
  H  H101  1  0.56330000  0.55510000  0.44190000  1
  H  H102  1  0.23900000  0.88460000  0.39150000  1
  H  H103  1  0.88460000  0.23900000  0.89150000  1
  H  H104  1  0.38930000  0.78270000  0.00110000  1
  H  H105  1  0.78270000  0.38930000  0.50110000  1
  H  H106  1  0.14250000  0.04470000  0.53950000  1
  H  H107  1  0.04470000  0.14250000  0.03950000  1
  H  H108  1  0.31570000  0.97530000  0.36250000  1
  H  H109  1  0.97530000  0.31570000  0.86250000  1
  H  H110  1  0.18080000  0.16340000  0.50650000  1
  H  H111  1  0.16340000  0.18080000  0.00650000  1
  H  H112  1  0.25820000  0.10700000  0.36230000  1
  H  H113  1  0.10700000  0.25820000  0.86230000  1
  H  H114  1  0.35250000  0.01790000  0.88140000  1
  H  H115  1  0.01790000  0.35250000  0.38140000  1
  H  H116  1  0.39470000  0.04470000  0.44440000  1
  H  H117  1  0.04470000  0.39470000  0.94440000  1
  H  H118  1  0.30780000  0.16220000  0.46200000  1
  H  H119  1  0.16220000  0.30780000  0.96200000  1
  H  H120  1  0.27070000  0.22650000  0.16550000  1
  H  H121  1  0.22650000  0.27070000  0.66550000  1
  H  H122  1  0.72930000  0.77350000  0.83450000  1
  H  H123  1  0.77350000  0.72930000  0.33450000  1
  H  H124  1  0.69220000  0.83780000  0.53800000  1
  H  H125  1  0.83780000  0.69220000  0.03800000  1
  H  H126  1  0.60530000  0.95530000  0.55560000  1
  H  H127  1  0.95530000  0.60530000  0.05560000  1
  H  H128  1  0.64750000  0.98210000  0.11860000  1
  H  H129  1  0.98210000  0.64750000  0.61860000  1
  H  H130  1  0.74180000  0.89300000  0.63770000  1
  H  H131  1  0.89300000  0.74180000  0.13770000  1
  H  H132  1  0.81920000  0.83660000  0.49350000  1
  H  H133  1  0.83660000  0.81920000  0.99350000  1
  H  H134  1  0.68430000  0.02470000  0.63750000  1
  H  H135  1  0.02470000  0.68430000  0.13750000  1
  H  H136  1  0.85750000  0.95530000  0.46050000  1
  H  H137  1  0.95530000  0.85750000  0.96050000  1
  H  H138  1  0.61070000  0.21730000  0.99890000  1
  H  H139  1  0.21730000  0.61070000  0.49890000  1
  H  H140  1  0.76100000  0.11540000  0.60850000  1
  H  H141  1  0.11540000  0.76100000  0.10850000  1
  H  H142  1  0.44490000  0.43670000  0.05810000  1
  H  H143  1  0.43670000  0.44490000  0.55810000  1
  H  H144  1  0.89330000  0.07010000  0.58350000  1
  H  H145  1  0.07010000  0.89330000  0.08350000  1
  H  H146  1  0.96020000  0.00400000  0.43620000  1
  H  H147  1  0.00400000  0.96020000  0.93620000  1
  N  N148  1  0.10920000  0.89600000  0.95100000  1
  N  N149  1  0.89600000  0.10920000  0.45100000  1
  N  N150  1  0.05060000  0.96040000  0.93770000  1
  N  N151  1  0.96040000  0.05060000  0.43770000  1
  N  N152  1  0.23920000  0.79140000  0.97060000  1
  N  N153  1  0.79140000  0.23920000  0.47060000  1
  N  N154  1  0.30450000  0.74690000  0.98870000  1
  N  N155  1  0.74690000  0.30450000  0.48870000  1
  N  N156  1  0.48380000  0.65900000  0.45030000  1
  N  N157  1  0.65900000  0.48380000  0.95030000  1
  N  N158  1  0.37830000  0.77310000  0.48660000  1
  N  N159  1  0.77310000  0.37830000  0.98660000  1
  N  N160  1  0.15520000  0.00180000  0.93340000  1
  N  N161  1  0.00180000  0.15520000  0.43340000  1
  N  N162  1  0.32880000  0.84020000  0.49880000  1
  N  N163  1  0.84020000  0.32880000  0.99880000  1
  N  N164  1  0.30250000  0.87430000  0.97460000  1
  N  N165  1  0.87430000  0.30250000  0.47460000  1
  N  N166  1  0.24240000  0.97660000  0.50880000  1
  N  N167  1  0.97660000  0.24240000  0.00880000  1
  N  N168  1  0.15080000  0.09460000  0.39470000  1
  N  N169  1  0.09460000  0.15080000  0.89470000  1
  N  N170  1  0.60890000  0.64870000  0.40950000  1
  N  N171  1  0.64870000  0.60890000  0.90950000  1
  N  N172  1  0.57380000  0.72860000  0.40730000  1
  N  N173  1  0.72860000  0.57380000  0.90730000  1
  N  N174  1  0.43000000  0.87600000  0.43980000  1
  N  N175  1  0.87600000  0.43000000  0.93980000  1
  N  N176  1  0.57000000  0.12400000  0.56020000  1
  N  N177  1  0.12400000  0.57000000  0.06020000  1
  N  N178  1  0.42620000  0.27140000  0.59270000  1
  N  N179  1  0.27140000  0.42620000  0.09270000  1
  N  N180  1  0.39110000  0.35130000  0.59050000  1
  N  N181  1  0.35130000  0.39110000  0.09050000  1
  N  N182  1  0.84920000  0.90540000  0.60530000  1
  N  N183  1  0.90540000  0.84920000  0.10530000  1
  N  N184  1  0.75760000  0.02340000  0.49120000  1
  N  N185  1  0.02340000  0.75760000  0.99120000  1
  N  N186  1  0.69750000  0.12570000  0.02540000  1
  N  N187  1  0.12570000  0.69750000  0.52540000  1
  N  N188  1  0.67120000  0.15980000  0.50120000  1
  N  N189  1  0.15980000  0.67120000  0.00120000  1
  N  N190  1  0.84480000  0.99820000  0.06660000  1
  N  N191  1  0.99820000  0.84480000  0.56660000  1
  N  N192  1  0.62170000  0.22690000  0.51340000  1
  N  N193  1  0.22690000  0.62170000  0.01340000  1
  N  N194  1  0.51620000  0.34100000  0.54970000  1
  N  N195  1  0.34100000  0.51620000  0.04970000  1
  N  N196  1  0.69550000  0.25310000  0.01130000  1
  N  N197  1  0.25310000  0.69550000  0.51130000  1
  N  N198  1  0.76080000  0.20860000  0.02940000  1
  N  N199  1  0.20860000  0.76080000  0.52940000  1
  N  N200  1  0.94940000  0.03960000  0.06230000  1
  N  N201  1  0.03960000  0.94940000  0.56230000  1
  N  N202  1  0.89080000  0.10400000  0.04900000  1
  N  N203  1  0.10400000  0.89080000  0.54900000  1
  Na  Na204  1  0.48440000  0.56520000  0.29030000  1
  Na  Na205  1  0.56520000  0.48440000  0.79030000  1
  Na  Na206  1  0.51560000  0.43480000  0.70970000  1
  Na  Na207  1  0.43480000  0.51560000  0.20970000  1
  O  O208  1  0.25060000  0.75420000  0.14080000  1
  O  O209  1  0.75420000  0.25060000  0.64080000  1
  O  O210  1  0.40880000  0.60580000  0.93950000  1
  O  O211  1  0.60580000  0.40880000  0.43950000  1
  O  O212  1  0.34010000  0.67610000  0.63380000  1
  O  O213  1  0.38320000  0.63300000  0.37430000  1
  O  O214  1  0.63300000  0.38320000  0.87430000  1
  O  O215  1  0.67610000  0.34010000  0.13380000  1
  O  O216  1  0.47470000  0.55410000  0.27140000  1
  O  O217  1  0.55410000  0.47470000  0.77140000  1
  O  O218  1  0.51250000  0.52350000  0.10050000  1
  O  O219  1  0.52350000  0.51250000  0.60050000  1
  O  O220  1  0.35420000  0.68380000  0.28280000  1
  O  O221  1  0.68380000  0.35420000  0.78280000  1
  O  O222  1  0.27390000  0.76710000  0.79170000  1
  O  O223  1  0.76710000  0.27390000  0.29170000  1
  O  O224  1  0.18560000  0.86480000  0.29100000  1
  O  O225  1  0.86480000  0.18560000  0.79100000  1
  O  O226  1  0.47030000  0.59230000  0.67490000  1
  O  O227  1  0.59230000  0.47030000  0.17490000  1
  O  O228  1  0.43450000  0.63190000  0.02850000  1
  O  O229  1  0.63190000  0.43450000  0.52850000  1
  O  O230  1  0.29220000  0.78920000  0.21740000  1
  O  O231  1  0.78920000  0.29220000  0.71740000  1
  O  O232  1  0.38980000  0.71480000  0.70790000  1
  O  O233  1  0.71480000  0.38980000  0.20790000  1
  O  O234  1  0.48560000  0.61940000  0.84150000  1
  O  O235  1  0.61940000  0.48560000  0.34150000  1
  O  O236  1  0.48660000  0.63960000  0.15020000  1
  O  O237  1  0.63960000  0.48660000  0.65020000  1
  O  O238  1  0.50860000  0.62960000  0.74210000  1
  O  O239  1  0.62960000  0.50860000  0.24210000  1
  O  O240  1  0.29500000  0.84900000  0.69300000  1
  O  O241  1  0.84900000  0.29500000  0.19300000  1
  O  O242  1  0.21630000  0.93110000  0.19230000  1
  O  O243  1  0.93110000  0.21630000  0.69230000  1
  O  O244  1  0.48330000  0.67210000  0.57800000  1
  O  O245  1  0.67210000  0.48330000  0.07800000  1
  O  O246  1  0.42040000  0.74480000  0.07730000  1
  O  O247  1  0.74480000  0.42040000  0.57730000  1
  O  O248  1  0.33440000  0.83680000  0.29030000  1
  O  O249  1  0.83680000  0.33440000  0.79030000  1
  O  O250  1  0.42910000  0.75850000  0.78300000  1
  O  O251  1  0.75850000  0.42910000  0.28300000  1
  O  O252  1  0.32110000  0.86790000  0.11820000  1
  O  O253  1  0.86790000  0.32110000  0.61820000  1
  O  O254  1  0.46840000  0.72760000  0.30620000  1
  O  O255  1  0.72760000  0.46840000  0.80620000  1
  O  O256  1  0.40060000  0.79880000  0.60940000  1
  O  O257  1  0.79880000  0.40060000  0.10940000  1
  O  O258  1  0.52030000  0.68010000  0.21740000  1
  O  O259  1  0.68010000  0.52030000  0.71740000  1
  O  O260  1  0.56240000  0.65500000  0.05100000  1
  O  O261  1  0.65500000  0.56240000  0.55100000  1
  O  O262  1  0.52520000  0.71260000  0.65440000  1
  O  O263  1  0.71260000  0.52520000  0.15440000  1
  O  O264  1  0.61300000  0.63060000  0.28380000  1
  O  O265  1  0.63060000  0.61300000  0.78380000  1
  O  O266  1  0.46530000  0.78470000  0.14910000  1
  O  O267  1  0.78470000  0.46530000  0.64910000  1
  O  O268  1  0.37350000  0.91390000  0.19460000  1
  O  O269  1  0.91390000  0.37350000  0.69460000  1
  O  O270  1  0.44290000  0.84770000  0.69410000  1
  O  O271  1  0.84770000  0.44290000  0.19410000  1
  O  O272  1  0.60240000  0.69940000  0.12840000  1
  O  O273  1  0.69940000  0.60240000  0.62840000  1
  O  O274  1  0.40190000  0.90110000  0.02220000  1
  O  O275  1  0.90110000  0.40190000  0.52220000  1
  O  O276  1  0.57240000  0.75620000  0.72560000  1
  O  O277  1  0.75620000  0.57240000  0.22560000  1
  O  O278  1  0.31170000  0.02330000  0.90950000  1
  O  O279  1  0.02330000  0.31170000  0.40950000  1
  O  O280  1  0.62460000  0.71240000  0.55670000  1
  O  O281  1  0.71240000  0.62460000  0.05670000  1
  O  O282  1  0.50540000  0.83560000  0.22290000  1
  O  O283  1  0.83560000  0.50540000  0.72290000  1
  O  O284  1  0.54010000  0.80770000  0.04910000  1
  O  O285  1  0.80770000  0.54010000  0.54910000  1
  O  O286  1  0.45200000  0.92320000  0.09930000  1
  O  O287  1  0.92320000  0.45200000  0.59930000  1
  O  O288  1  0.53420000  0.84400000  0.59830000  1
  O  O289  1  0.84400000  0.53420000  0.09830000  1
  O  O290  1  0.64840000  0.74040000  0.20020000  1
  O  O291  1  0.74040000  0.64840000  0.70020000  1
  O  O292  1  0.66210000  0.76330000  0.63550000  1
  O  O293  1  0.76330000  0.66210000  0.13550000  1
  O  O294  1  0.24730000  0.18290000  0.87640000  1
  O  O295  1  0.18290000  0.24730000  0.37640000  1
  O  O296  1  0.59220000  0.85320000  0.13050000  1
  O  O297  1  0.85320000  0.59220000  0.63050000  1
  O  O298  1  0.71940000  0.72640000  0.85570000  1
  O  O299  1  0.72640000  0.71940000  0.35570000  1
  O  O300  1  0.69210000  0.77230000  0.06190000  1
  O  O301  1  0.77230000  0.69210000  0.56190000  1
  O  O302  1  0.30790000  0.22770000  0.93810000  1
  O  O303  1  0.22770000  0.30790000  0.43810000  1
  O  O304  1  0.28060000  0.27360000  0.14430000  1
  O  O305  1  0.27360000  0.28060000  0.64430000  1
  O  O306  1  0.40780000  0.14680000  0.86950000  1
  O  O307  1  0.14680000  0.40780000  0.36950000  1
  O  O308  1  0.75270000  0.81710000  0.12360000  1
  O  O309  1  0.81710000  0.75270000  0.62360000  1
  O  O310  1  0.33790000  0.23670000  0.36450000  1
  O  O311  1  0.23670000  0.33790000  0.86450000  1
  O  O312  1  0.35160000  0.25960000  0.79980000  1
  O  O313  1  0.25960000  0.35160000  0.29980000  1
  O  O314  1  0.46580000  0.15600000  0.40170000  1
  O  O315  1  0.15600000  0.46580000  0.90170000  1
  O  O316  1  0.54800000  0.07680000  0.90070000  1
  O  O317  1  0.07680000  0.54800000  0.40070000  1
  O  O318  1  0.45990000  0.19230000  0.95090000  1
  O  O319  1  0.19230000  0.45990000  0.45090000  1
  O  O320  1  0.49460000  0.16440000  0.77710000  1
  O  O321  1  0.16440000  0.49460000  0.27710000  1
  O  O322  1  0.37540000  0.28760000  0.44330000  1
  O  O323  1  0.28760000  0.37540000  0.94330000  1
  O  O324  1  0.68830000  0.97670000  0.09050000  1
  O  O325  1  0.97670000  0.68830000  0.59050000  1
  O  O326  1  0.42760000  0.24380000  0.27440000  1
  O  O327  1  0.24380000  0.42760000  0.77440000  1
  O  O328  1  0.59810000  0.09890000  0.97780000  1
  O  O329  1  0.09890000  0.59810000  0.47780000  1
  O  O330  1  0.39760000  0.30060000  0.87160000  1
  O  O331  1  0.30060000  0.39760000  0.37160000  1
  O  O332  1  0.55710000  0.15230000  0.30590000  1
  O  O333  1  0.15230000  0.55710000  0.80590000  1
  O  O334  1  0.62650000  0.08610000  0.80540000  1
  O  O335  1  0.08610000  0.62650000  0.30540000  1
  O  O336  1  0.53470000  0.21530000  0.85090000  1
  O  O337  1  0.21530000  0.53470000  0.35090000  1
  O  O338  1  0.38700000  0.36940000  0.71620000  1
  O  O339  1  0.36940000  0.38700000  0.21620000  1
  O  O340  1  0.47480000  0.28740000  0.34560000  1
  O  O341  1  0.28740000  0.47480000  0.84560000  1
  O  O342  1  0.43760000  0.34500000  0.94900000  1
  O  O343  1  0.34500000  0.43760000  0.44900000  1
  O  O344  1  0.47970000  0.31990000  0.78260000  1
  O  O345  1  0.31990000  0.47970000  0.28260000  1
  O  O346  1  0.59940000  0.20120000  0.39060000  1
  O  O347  1  0.20120000  0.59940000  0.89060000  1
  O  O348  1  0.53160000  0.27240000  0.69380000  1
  O  O349  1  0.27240000  0.53160000  0.19380000  1
  O  O350  1  0.67890000  0.13210000  0.88180000  1
  O  O351  1  0.13210000  0.67890000  0.38180000  1
  O  O352  1  0.57090000  0.24150000  0.21700000  1
  O  O353  1  0.24150000  0.57090000  0.71700000  1
  O  O354  1  0.66560000  0.16320000  0.70970000  1
  O  O355  1  0.16320000  0.66560000  0.20970000  1
  O  O356  1  0.57960000  0.25520000  0.92270000  1
  O  O357  1  0.25520000  0.57960000  0.42270000  1
  O  O358  1  0.51670000  0.32790000  0.42200000  1
  O  O359  1  0.32790000  0.51670000  0.92200000  1
  O  O360  1  0.78370000  0.06890000  0.80770000  1
  O  O361  1  0.06890000  0.78370000  0.30770000  1
  O  O362  1  0.70500000  0.15100000  0.30700000  1
  O  O363  1  0.15100000  0.70500000  0.80700000  1
  O  O364  1  0.49140000  0.37040000  0.25790000  1
  O  O365  1  0.37040000  0.49140000  0.75790000  1
  O  O366  1  0.51340000  0.36040000  0.84980000  1
  O  O367  1  0.36040000  0.51340000  0.34980000  1
  O  O368  1  0.51440000  0.38060000  0.15850000  1
  O  O369  1  0.38060000  0.51440000  0.65850000  1
  O  O370  1  0.61020000  0.28520000  0.29210000  1
  O  O371  1  0.28520000  0.61020000  0.79210000  1
  O  O372  1  0.70780000  0.21080000  0.78260000  1
  O  O373  1  0.21080000  0.70780000  0.28260000  1
  O  O374  1  0.56550000  0.36810000  0.97150000  1
  O  O375  1  0.36810000  0.56550000  0.47150000  1
  O  O376  1  0.52970000  0.40770000  0.32510000  1
  O  O377  1  0.40770000  0.52970000  0.82510000  1
  O  O378  1  0.81440000  0.13520000  0.70900000  1
  O  O379  1  0.13520000  0.81440000  0.20900000  1
  O  O380  1  0.72610000  0.23290000  0.20830000  1
  O  O381  1  0.23290000  0.72610000  0.70830000  1
  O  O382  1  0.64580000  0.31620000  0.71720000  1
  O  O383  1  0.31620000  0.64580000  0.21720000  1
  O  O384  1  0.48750000  0.47650000  0.89950000  1
  O  O385  1  0.47650000  0.48750000  0.39950000  1
  O  O386  1  0.52530000  0.44590000  0.72860000  1
  O  O387  1  0.44590000  0.52530000  0.22860000  1
  O  O388  1  0.61680000  0.36700000  0.62570000  1
  O  O389  1  0.65990000  0.32390000  0.36620000  1
  O  O390  1  0.32390000  0.65990000  0.86620000  1
  O  O391  1  0.36700000  0.61680000  0.12570000  1
  O  O392  1  0.59120000  0.39420000  0.06050000  1
  O  O393  1  0.39420000  0.59120000  0.56050000  1
  O  O394  1  0.74940000  0.24580000  0.85920000  1
  O  O395  1  0.24580000  0.74940000  0.35920000  1
  P  P396  1  0.70530000  0.29470000  0.75000000  1
  P  P397  1  0.47383000  0.66017000  0.69549000  1
  P  P398  1  0.66017000  0.47383000  0.19549000  1
  P  P399  1  0.51750000  0.69930000  0.16287000  1
  P  P400  1  0.69930000  0.51750000  0.66287000  1
  P  P401  1  0.48250000  0.30070000  0.83713000  1
  P  P402  1  0.30070000  0.48250000  0.33713000  1
  P  P403  1  0.52617000  0.33983000  0.30451000  1
  P  P404  1  0.33983000  0.52617000  0.80451000  1
  P  P405  1  0.29470000  0.70530000  0.25000000  1
  W  W406  1  0.42502000  0.59458000  0.61214000  1
  W  W407  1  0.59458000  0.42502000  0.11214000  1
  W  W408  1  0.21287000  0.85089000  0.16201000  1
  W  W409  1  0.85089000  0.21287000  0.66201000  1
  W  W410  1  0.31050000  0.77846000  0.65060000  1
  W  W411  1  0.77846000  0.31050000  0.15060000  1
  W  W412  1  0.46359000  0.62999000  0.08273000  1
  W  W413  1  0.62999000  0.46359000  0.58273000  1
  W  W414  1  0.35810000  0.74100000  0.33949000  1
  W  W415  1  0.74100000  0.35810000  0.83949000  1
  W  W416  1  0.34735000  0.81543000  0.74844000  1
  W  W417  1  0.81543000  0.34735000  0.24844000  1
  W  W418  1  0.28201000  0.90437000  0.23972000  1
  W  W419  1  0.90437000  0.28201000  0.73972000  1
  W  W420  1  0.53462000  0.69244000  0.78817000  1
  W  W421  1  0.69244000  0.53462000  0.28817000  1
  W  W422  1  0.41951000  0.84583000  0.08089000  1
  W  W423  1  0.84583000  0.41951000  0.58089000  1
  W  W424  1  0.51990000  0.76212000  0.57413000  1
  W  W425  1  0.76212000  0.51990000  0.07413000  1
  W  W426  1  0.56183000  0.73809000  0.26033000  1
  W  W427  1  0.73809000  0.56183000  0.76033000  1
  W  W428  1  0.62774000  0.72578000  0.04202000  1
  W  W429  1  0.72578000  0.62774000  0.54202000  1
  W  W430  1  0.54736000  0.82374000  0.66503000  1
  W  W431  1  0.82374000  0.54736000  0.16503000  1
  W  W432  1  0.49019000  0.89635000  0.15929000  1
  W  W433  1  0.89635000  0.49019000  0.65929000  1
  W  W434  1  0.69081000  0.75479000  0.13231000  1
  W  W435  1  0.75479000  0.69081000  0.63231000  1
  W  W436  1  0.30919000  0.24521000  0.86769000  1
  W  W437  1  0.24521000  0.30919000  0.36769000  1
  W  W438  1  0.50981000  0.10365000  0.84071000  1
  W  W439  1  0.10365000  0.50981000  0.34071000  1
  W  W440  1  0.45264000  0.17626000  0.33497000  1
  W  W441  1  0.17626000  0.45264000  0.83497000  1
  W  W442  1  0.37226000  0.27422000  0.95798000  1
  W  W443  1  0.27422000  0.37226000  0.45798000  1
  W  W444  1  0.43817000  0.26191000  0.73967000  1
  W  W445  1  0.26191000  0.43817000  0.23967000  1
  W  W446  1  0.48010000  0.23788000  0.42587000  1
  W  W447  1  0.23788000  0.48010000  0.92587000  1
  W  W448  1  0.58049000  0.15417000  0.91911000  1
  W  W449  1  0.15417000  0.58049000  0.41911000  1
  W  W450  1  0.46538000  0.30756000  0.21183000  1
  W  W451  1  0.30756000  0.46538000  0.71183000  1
  W  W452  1  0.71799000  0.09563000  0.76028000  1
  W  W453  1  0.09563000  0.71799000  0.26028000  1
  W  W454  1  0.65265000  0.18457000  0.25156000  1
  W  W455  1  0.18457000  0.65265000  0.75156000  1
  W  W456  1  0.64190000  0.25900000  0.66051000  1
  W  W457  1  0.25900000  0.64190000  0.16051000  1
  W  W458  1  0.53641000  0.37001000  0.91727000  1
  W  W459  1  0.37001000  0.53641000  0.41727000  1
  W  W460  1  0.68950000  0.22154000  0.34940000  1
  W  W461  1  0.22154000  0.68950000  0.84940000  1
  W  W462  1  0.78713000  0.14911000  0.83799000  1
  W  W463  1  0.14911000  0.78713000  0.33799000  1
  W  W464  1  0.57498000  0.40542000  0.38786000  1
  W  W465  1  0.40542000  0.57498000  0.88786000  1
