# generated using pymatgen
data_ScC8N4O13
_symmetry_space_group_name_H-M   'P 1'
_cell_length_a   7.33000000
_cell_length_b   11.42840695
_cell_length_c   11.42840695
_cell_angle_alpha   61.00168790
_cell_angle_beta   71.29521376
_cell_angle_gamma   71.29521376
_symmetry_Int_Tables_number   1
_chemical_formula_structural   ScC8N4O13
_chemical_formula_sum   'Sc2 C16 N8 O26'
_cell_volume   777.18039853
_cell_formula_units_Z   2
loop_
 _symmetry_equiv_pos_site_id
 _symmetry_equiv_pos_as_xyz
  1  'x, y, z'
loop_
 _atom_site_type_symbol
 _atom_site_label
 _atom_site_symmetry_multiplicity
 _atom_site_fract_x
 _atom_site_fract_y
 _atom_site_fract_z
 _atom_site_occupancy
  C  C0  1  0.14010000  0.97610000  0.24370000  1
  C  C1  1  0.64010000  0.24370000  0.97610000  1
  C  C2  1  0.06730000  0.98810000  0.37730000  1
  C  C3  1  0.56730000  0.37730000  0.98810000  1
  C  C4  1  0.87500000  0.99240000  0.43960000  1
  C  C5  1  0.19300000  0.99240000  0.43960000  1
  C  C6  1  0.37500000  0.43960000  0.99240000  1
  C  C7  1  0.69300000  0.43960000  0.99240000  1
  C  C8  1  0.80700000  0.00760000  0.56040000  1
  C  C9  1  0.12500000  0.00760000  0.56040000  1
  C  C10  1  0.30700000  0.56040000  0.00760000  1
  C  C11  1  0.62500000  0.56040000  0.00760000  1
  C  C12  1  0.93270000  0.01190000  0.62270000  1
  C  C13  1  0.43270000  0.62270000  0.01190000  1
  C  C14  1  0.85990000  0.02390000  0.75630000  1
  C  C15  1  0.35990000  0.75630000  0.02390000  1
  N  N16  1  0.88760000  0.38140000  0.99940000  1
  N  N17  1  0.23160000  0.38140000  0.99940000  1
  N  N18  1  0.38760000  0.99940000  0.38140000  1
  N  N19  1  0.73160000  0.99940000  0.38140000  1
  N  N20  1  0.76840000  0.61860000  0.00060000  1
  N  N21  1  0.11240000  0.61860000  0.00060000  1
  N  N22  1  0.26840000  0.00060000  0.61860000  1
  N  N23  1  0.61240000  0.00060000  0.61860000  1
  O  O24  1  0.25000000  0.08200000  0.91800000  1
  O  O25  1  0.75000000  0.91800000  0.08200000  1
  O  O26  1  0.01644000  0.97116000  0.19276000  1
  O  O27  1  0.31964000  0.97116000  0.19276000  1
  O  O28  1  0.51644000  0.19276000  0.97116000  1
  O  O29  1  0.81964000  0.19276000  0.97116000  1
  O  O30  1  0.99070000  0.42930000  0.87130000  1
  O  O31  1  0.20870000  0.42930000  0.87130000  1
  O  O32  1  0.49070000  0.87130000  0.42930000  1
  O  O33  1  0.70870000  0.87130000  0.42930000  1
  O  O34  1  0.94340000  0.29960000  0.11960000  1
  O  O35  1  0.13740000  0.29960000  0.11960000  1
  O  O36  1  0.44340000  0.11960000  0.29960000  1
  O  O37  1  0.63740000  0.11960000  0.29960000  1
  O  O38  1  0.86260000  0.70040000  0.88040000  1
  O  O39  1  0.05660000  0.70040000  0.88040000  1
  O  O40  1  0.36260000  0.88040000  0.70040000  1
  O  O41  1  0.55660000  0.88040000  0.70040000  1
  O  O42  1  0.79130000  0.57070000  0.12870000  1
  O  O43  1  0.00930000  0.57070000  0.12870000  1
  O  O44  1  0.29130000  0.12870000  0.57070000  1
  O  O45  1  0.50930000  0.12870000  0.57070000  1
  O  O46  1  0.68036000  0.02884000  0.80724000  1
  O  O47  1  0.98356000  0.02884000  0.80724000  1
  O  O48  1  0.18036000  0.80724000  0.02884000  1
  O  O49  1  0.48356000  0.80724000  0.02884000  1
  Sc  Sc50  1  0.00000000  0.00000000  0.00000000  1
  Sc  Sc51  1  0.50000000  1.00000000  0.00000000  1
