# generated using pymatgen
data_Zn(PO4)2
_symmetry_space_group_name_H-M   'P 1'
_cell_length_a   8.84900000
_cell_length_b   10.81800000
_cell_length_c   13.86900000
_cell_angle_alpha   90.00000000
_cell_angle_beta   90.00000000
_cell_angle_gamma   90.00000000
_symmetry_Int_Tables_number   1
_chemical_formula_structural   Zn(PO4)2
_chemical_formula_sum   'Zn4 P8 O32'
_cell_volume   1327.65831686
_cell_formula_units_Z   4
loop_
 _symmetry_equiv_pos_site_id
 _symmetry_equiv_pos_as_xyz
  1  'x, y, z'
loop_
 _atom_site_type_symbol
 _atom_site_label
 _atom_site_symmetry_multiplicity
 _atom_site_fract_x
 _atom_site_fract_y
 _atom_site_fract_z
 _atom_site_occupancy
  Zn  Zn0  1  0.96244000  0.67219000  0.89884000  1
  Zn  Zn1  1  0.53756000  0.17219000  0.39884000  1
  Zn  Zn2  1  0.46244000  0.67219000  0.60116000  1
  Zn  Zn3  1  0.03756000  0.17219000  0.10116000  1
  P  P4  1  0.98948000  0.87484000  0.07784000  1
  P  P5  1  0.82898000  0.12000000  0.28392000  1
  P  P6  1  0.67102000  0.62000000  0.78392000  1
  P  P7  1  0.51052000  0.37484000  0.57784000  1
  P  P8  1  0.48948000  0.87484000  0.42216000  1
  P  P9  1  0.32898000  0.12000000  0.21608000  1
  P  P10  1  0.17102000  0.62000000  0.71608000  1
  P  P11  1  0.01052000  0.37484000  0.92216000  1
  O  O12  1  0.98970000  0.50696000  0.95047000  1
  O  O13  1  0.98400000  0.28350000  0.00102000  1
  O  O14  1  0.95950000  0.05240000  0.34147000  1
  O  O15  1  0.90000000  0.34110000  0.83696000  1
  O  O16  1  0.89870000  0.19920000  0.20657000  1
  O  O17  1  0.82500000  0.85310000  0.11776000  1
  O  O18  1  0.77250000  0.51770000  0.74083000  1
  O  O19  1  0.75710000  0.69624000  0.85660000  1
  O  O20  1  0.74290000  0.19624000  0.35660000  1
  O  O21  1  0.72750000  0.01770000  0.24083000  1
  O  O22  1  0.67500000  0.35310000  0.61776000  1
  O  O23  1  0.60130000  0.69920000  0.70657000  1
  O  O24  1  0.60000000  0.84110000  0.33696000  1
  O  O25  1  0.54050000  0.55240000  0.84147000  1
  O  O26  1  0.51600000  0.78350000  0.50102000  1
  O  O27  1  0.51030000  0.00696000  0.45047000  1
  O  O28  1  0.48970000  0.50696000  0.54953000  1
  O  O29  1  0.48400000  0.28350000  0.49898000  1
  O  O30  1  0.45950000  0.05240000  0.15853000  1
  O  O31  1  0.40000000  0.34110000  0.66304000  1
  O  O32  1  0.39870000  0.19920000  0.29343000  1
  O  O33  1  0.32500000  0.85310000  0.38224000  1
  O  O34  1  0.27250000  0.51770000  0.75917000  1
  O  O35  1  0.25710000  0.69624000  0.64340000  1
  O  O36  1  0.24290000  0.19624000  0.14340000  1
  O  O37  1  0.22750000  0.01770000  0.25917000  1
  O  O38  1  0.17500000  0.35310000  0.88224000  1
  O  O39  1  0.10130000  0.69920000  0.79343000  1
  O  O40  1  0.10000000  0.84110000  0.16304000  1
  O  O41  1  0.04050000  0.55240000  0.65853000  1
  O  O42  1  0.01600000  0.78350000  0.99898000  1
  O  O43  1  0.01030000  0.00696000  0.04953000  1
