# generated using pymatgen
data_Eu(CO2)4
_symmetry_space_group_name_H-M   'P 1'
_cell_length_a   9.80290000
_cell_length_b   14.63240000
_cell_length_c   17.50590000
_cell_angle_alpha   90.00000000
_cell_angle_beta   90.00000000
_cell_angle_gamma   97.12080000
_symmetry_Int_Tables_number   1
_chemical_formula_structural   Eu(CO2)4
_chemical_formula_sum   'Eu8 C32 O64'
_cell_volume   2491.67780028
_cell_formula_units_Z   8
loop_
 _symmetry_equiv_pos_site_id
 _symmetry_equiv_pos_as_xyz
  1  'x, y, z'
loop_
 _atom_site_type_symbol
 _atom_site_label
 _atom_site_symmetry_multiplicity
 _atom_site_fract_x
 _atom_site_fract_y
 _atom_site_fract_z
 _atom_site_occupancy
  Eu  Eu0  1  0.99477000  0.65829000  0.37838000  1
  Eu  Eu1  1  0.98064000  0.08759000  0.33688000  1
  Eu  Eu2  1  0.51936000  0.41241000  0.83688000  1
  Eu  Eu3  1  0.50523000  0.84171000  0.87838000  1
  Eu  Eu4  1  0.49477000  0.15829000  0.12162000  1
  Eu  Eu5  1  0.48064000  0.58759000  0.16312000  1
  Eu  Eu6  1  0.01936000  0.91241000  0.66312000  1
  Eu  Eu7  1  0.00523000  0.34171000  0.62162000  1
  C  C8  1  0.95150000  0.25480000  0.45220000  1
  C  C9  1  0.94270000  0.51860000  0.52400000  1
  C  C10  1  0.93720000  0.02340000  0.51350000  1
  C  C11  1  0.91660000  0.78310000  0.51910000  1
  C  C12  1  0.81350000  0.38390000  0.76350000  1
  C  C13  1  0.78960000  0.13190000  0.19550000  1
  C  C14  1  0.76680000  0.92760000  0.77720000  1
  C  C15  1  0.76110000  0.82280000  0.76530000  1
  C  C16  1  0.73890000  0.67720000  0.26530000  1
  C  C17  1  0.73320000  0.57240000  0.27720000  1
  C  C18  1  0.71040000  0.36810000  0.69550000  1
  C  C19  1  0.68650000  0.11610000  0.26350000  1
  C  C20  1  0.58340000  0.71690000  0.01910000  1
  C  C21  1  0.56280000  0.47660000  0.01350000  1
  C  C22  1  0.55730000  0.98140000  0.02400000  1
  C  C23  1  0.54850000  0.24520000  0.95220000  1
  C  C24  1  0.45150000  0.75480000  0.04780000  1
  C  C25  1  0.44270000  0.01860000  0.97600000  1
  C  C26  1  0.43720000  0.52340000  0.98650000  1
  C  C27  1  0.41660000  0.28310000  0.98090000  1
  C  C28  1  0.31350000  0.88390000  0.73650000  1
  C  C29  1  0.28960000  0.63190000  0.30450000  1
  C  C30  1  0.26680000  0.42760000  0.72280000  1
  C  C31  1  0.26110000  0.32280000  0.73470000  1
  C  C32  1  0.23890000  0.17720000  0.23470000  1
  C  C33  1  0.23320000  0.07240000  0.22280000  1
  C  C34  1  0.21040000  0.86810000  0.80450000  1
  C  C35  1  0.18650000  0.61610000  0.23650000  1
  C  C36  1  0.08340000  0.21690000  0.48090000  1
  C  C37  1  0.06280000  0.97660000  0.48650000  1
  C  C38  1  0.05730000  0.48140000  0.47600000  1
  C  C39  1  0.04850000  0.74520000  0.54780000  1
  O  O40  1  0.93550000  0.37260000  0.74980000  1
  O  O41  1  0.92850000  0.49050000  0.59100000  1
  O  O42  1  0.92000000  0.23760000  0.38360000  1
  O  O43  1  0.91420000  0.02400000  0.58360000  1
  O  O44  1  0.91050000  0.11680000  0.20820000  1
  O  O45  1  0.88950000  0.29890000  0.49950000  1
  O  O46  1  0.87450000  0.76100000  0.45380000  1
  O  O47  1  0.87350000  0.57310000  0.49080000  1
  O  O48  1  0.86990000  0.05820000  0.46300000  1
  O  O49  1  0.86280000  0.83550000  0.56360000  1
  O  O50  1  0.85100000  0.97840000  0.73700000  1
  O  O51  1  0.84890000  0.79680000  0.72010000  1
  O  O52  1  0.82950000  0.72670000  0.30100000  1
  O  O53  1  0.81500000  0.54630000  0.32600000  1
  O  O54  1  0.76470000  0.40600000  0.82570000  1
  O  O55  1  0.75610000  0.34080000  0.63490000  1
  O  O56  1  0.74390000  0.15920000  0.13490000  1
  O  O57  1  0.73530000  0.09400000  0.32570000  1
  O  O58  1  0.68500000  0.95370000  0.82600000  1
  O  O59  1  0.67050000  0.77330000  0.80100000  1
  O  O60  1  0.65110000  0.70320000  0.22010000  1
  O  O61  1  0.64900000  0.52160000  0.23700000  1
  O  O62  1  0.63720000  0.66450000  0.06360000  1
  O  O63  1  0.63010000  0.44180000  0.96300000  1
  O  O64  1  0.62650000  0.92690000  0.99080000  1
  O  O65  1  0.62550000  0.73900000  0.95380000  1
  O  O66  1  0.61050000  0.20110000  0.99950000  1
  O  O67  1  0.58950000  0.38320000  0.70820000  1
  O  O68  1  0.58580000  0.47600000  0.08360000  1
  O  O69  1  0.58000000  0.26240000  0.88360000  1
  O  O70  1  0.57150000  0.00950000  0.09100000  1
  O  O71  1  0.56450000  0.12740000  0.24980000  1
  O  O72  1  0.43550000  0.87260000  0.75020000  1
  O  O73  1  0.42850000  0.99050000  0.90900000  1
  O  O74  1  0.42000000  0.73760000  0.11640000  1
  O  O75  1  0.41420000  0.52400000  0.91640000  1
  O  O76  1  0.41050000  0.61680000  0.29180000  1
  O  O77  1  0.38950000  0.79890000  0.00050000  1
  O  O78  1  0.37450000  0.26100000  0.04620000  1
  O  O79  1  0.37350000  0.07310000  0.00920000  1
  O  O80  1  0.36990000  0.55820000  0.03700000  1
  O  O81  1  0.36280000  0.33550000  0.93640000  1
  O  O82  1  0.35100000  0.47840000  0.76300000  1
  O  O83  1  0.34890000  0.29680000  0.77990000  1
  O  O84  1  0.32950000  0.22670000  0.19900000  1
  O  O85  1  0.31500000  0.04630000  0.17400000  1
  O  O86  1  0.26470000  0.90600000  0.67430000  1
  O  O87  1  0.25610000  0.84080000  0.86510000  1
  O  O88  1  0.24390000  0.65920000  0.36510000  1
  O  O89  1  0.23530000  0.59400000  0.17430000  1
  O  O90  1  0.18500000  0.45370000  0.67400000  1
  O  O91  1  0.17050000  0.27330000  0.69900000  1
  O  O92  1  0.15110000  0.20320000  0.27990000  1
  O  O93  1  0.14900000  0.02160000  0.26300000  1
  O  O94  1  0.13720000  0.16450000  0.43640000  1
  O  O95  1  0.13010000  0.94180000  0.53700000  1
  O  O96  1  0.12650000  0.42690000  0.50920000  1
  O  O97  1  0.12550000  0.23900000  0.54620000  1
  O  O98  1  0.11050000  0.70110000  0.50050000  1
  O  O99  1  0.08950000  0.88320000  0.79180000  1
  O  O100  1  0.08580000  0.97600000  0.41640000  1
  O  O101  1  0.08000000  0.76240000  0.61640000  1
  O  O102  1  0.07150000  0.50950000  0.40900000  1
  O  O103  1  0.06450000  0.62740000  0.25020000  1
