# generated using pymatgen
data_AgH12(C3N)6
_symmetry_space_group_name_H-M   'P 1'
_cell_length_a   13.78965037
_cell_length_b   13.78965037
_cell_length_c   24.61614070
_cell_angle_alpha   101.83766105
_cell_angle_beta   101.77951225
_cell_angle_gamma   105.62723120
_symmetry_Int_Tables_number   1
_chemical_formula_structural   AgH12(C3N)6
_chemical_formula_sum   'Ag8 H96 C144 N48'
_cell_volume   4241.58981286
_cell_formula_units_Z   8
loop_
 _symmetry_equiv_pos_site_id
 _symmetry_equiv_pos_as_xyz
  1  'x, y, z'
loop_
 _atom_site_type_symbol
 _atom_site_label
 _atom_site_symmetry_multiplicity
 _atom_site_fract_x
 _atom_site_fract_y
 _atom_site_fract_z
 _atom_site_occupancy
  Ag  Ag0  1  0.70217000  0.92539000  0.63244000  1
  Ag  Ag1  1  0.70705000  0.43027000  0.13244000  1
  Ag  Ag2  1  0.51733000  0.19667000  0.13192000  1
  Ag  Ag3  1  0.93525000  0.11459000  0.63192000  1
  Ag  Ag4  1  0.48267000  0.80333000  0.86808000  1
  Ag  Ag5  1  0.06475000  0.88541000  0.36808000  1
  Ag  Ag6  1  0.29783000  0.07461000  0.36756000  1
  Ag  Ag7  1  0.29295000  0.56973000  0.86756000  1
  C  C8  1  0.13850000  0.14140000  0.02530000  1
  C  C9  1  0.88390000  0.38680000  0.52530000  1
  C  C10  1  0.36250000  0.81430000  0.47700000  1
  C  C11  1  0.66270000  0.61450000  0.97700000  1
  C  C12  1  0.37590000  0.42180000  0.08170000  1
  C  C13  1  0.65990000  0.20580000  0.58170000  1
  C  C14  1  0.40530000  0.35970000  0.99100000  1
  C  C15  1  0.63130000  0.08570000  0.49100000  1
  C  C16  1  0.17810000  0.18400000  0.08470000  1
  C  C17  1  0.90070000  0.40660000  0.58470000  1
  C  C18  1  0.20900000  0.11830000  0.99490000  1
  C  C19  1  0.87660000  0.28590000  0.49490000  1
  C  C20  1  0.12670000  0.53280000  0.50510000  1
  C  C21  1  0.97230000  0.87840000  0.00510000  1
  C  C22  1  0.37630000  0.73300000  0.50630000  1
  C  C23  1  0.77330000  0.63000000  0.00630000  1
  C  C24  1  0.50640000  0.37150000  0.02070000  1
  C  C25  1  0.64920000  0.01430000  0.52070000  1
  C  C26  1  0.47760000  0.42980000  0.10800000  1
  C  C27  1  0.67820000  0.13040000  0.60800000  1
  C  C28  1  0.28160000  0.19870000  0.11110000  1
  C  C29  1  0.91240000  0.32950000  0.61110000  1
  C  C30  1  0.31030000  0.13400000  0.02570000  1
  C  C31  1  0.89170000  0.21540000  0.52570000  1
  C  C32  1  0.15150000  0.48420000  0.58750000  1
  C  C33  1  0.10330000  0.93600000  0.08750000  1
  C  C34  1  0.18900000  0.84470000  0.91090000  1
  C  C35  1  0.06620000  0.22190000  0.41090000  1
  C  C36  1  0.13520000  0.88110000  0.00190000  1
  C  C37  1  0.12080000  0.36670000  0.50190000  1
  C  C38  1  0.18840000  0.60640000  0.68460000  1
  C  C39  1  0.07820000  0.99620000  0.18460000  1
  C  C40  1  0.37350000  0.56730000  0.50080000  1
  C  C41  1  0.93350000  0.62730000  0.00080000  1
  C  C42  1  0.33040000  0.42700000  0.40700000  1
  C  C43  1  0.98000000  0.57660000  0.90700000  1
  C  C44  1  0.42400000  0.79560000  0.68320000  1
  C  C45  1  0.88760000  0.75920000  0.18320000  1
  C  C46  1  0.17270000  0.50730000  0.65120000  1
  C  C47  1  0.40990000  0.68070000  0.58740000  1
  C  C48  1  0.90670000  0.67750000  0.08740000  1
  C  C49  1  0.14390000  0.97850000  0.15120000  1
  C  C50  1  0.21130000  0.86160000  0.96950000  1
  C  C51  1  0.10790000  0.25820000  0.46950000  1
  C  C52  1  0.26450000  0.82760000  0.88430000  1
  C  C53  1  0.05670000  0.11980000  0.38430000  1
  C  C54  1  0.21360000  0.62300000  0.74420000  1
  C  C55  1  0.12120000  0.03060000  0.24420000  1
  C  C56  1  0.35960000  0.45810000  0.46630000  1
  C  C57  1  0.00820000  0.60670000  0.96630000  1
  C  C58  1  0.31710000  0.32480000  0.37950000  1
  C  C59  1  0.05470000  0.56240000  0.87950000  1
  C  C60  1  0.44370000  0.81190000  0.74240000  1
  C  C61  1  0.93050000  0.79870000  0.24240000  1
  C  C62  1  0.43240000  0.70380000  0.65140000  1
  C  C63  1  0.94760000  0.71900000  0.15140000  1
  C  C64  1  0.24950000  0.00330000  0.17740000  1
  C  C65  1  0.17410000  0.42790000  0.67740000  1
  C  C66  1  0.52270000  0.34100000  0.26010000  1
  C  C67  1  0.91910000  0.23740000  0.76010000  1
  C  C68  1  0.30780000  0.86120000  0.99900000  1
  C  C69  1  0.13780000  0.19120000  0.49900000  1
  C  C70  1  0.63570000  0.71310000  0.53520000  1
  C  C71  1  0.82210000  0.39950000  0.03520000  1
  C  C72  1  0.28510000  0.03950000  0.23680000  1
  C  C73  1  0.19730000  0.45170000  0.73680000  1
  C  C74  1  0.37680000  0.38650000  0.49650000  1
  C  C75  1  0.11000000  0.61970000  0.99650000  1
  C  C76  1  0.54070000  0.36420000  0.31950000  1
  C  C77  1  0.95530000  0.27880000  0.81950000  1
  C  C78  1  0.62340000  0.15700000  0.03220000  1
  C  C79  1  0.87520000  0.90880000  0.53220000  1
  C  C80  1  0.37660000  0.84300000  0.96780000  1
  C  C81  1  0.12480000  0.09120000  0.46780000  1
  C  C82  1  0.45930000  0.63580000  0.68050000  1
  C  C83  1  0.04470000  0.72120000  0.18050000  1
  C  C84  1  0.62320000  0.61350000  0.50350000  1
  C  C85  1  0.89000000  0.38030000  0.00350000  1
  C  C86  1  0.71490000  0.96050000  0.76320000  1
  C  C87  1  0.80270000  0.54830000  0.26320000  1
  C  C88  1  0.36430000  0.28690000  0.46480000  1
  C  C89  1  0.17790000  0.60050000  0.96480000  1
  C  C90  1  0.69220000  0.13880000  0.00100000  1
  C  C91  1  0.86220000  0.80880000  0.50100000  1
  C  C92  1  0.47730000  0.65900000  0.73990000  1
  C  C93  1  0.08090000  0.76260000  0.23990000  1
  C  C94  1  0.75050000  0.99670000  0.82260000  1
  C  C95  1  0.82590000  0.57210000  0.32260000  1
  C  C96  1  0.56760000  0.29620000  0.34860000  1
  C  C97  1  0.05240000  0.28100000  0.84860000  1
  C  C98  1  0.55630000  0.18810000  0.25760000  1
  C  C99  1  0.06950000  0.20130000  0.75760000  1
  C  C100  1  0.68290000  0.67520000  0.62050000  1
  C  C101  1  0.94530000  0.43760000  0.12050000  1
  C  C102  1  0.64040000  0.54190000  0.53370000  1
  C  C103  1  0.99180000  0.39330000  0.03370000  1
  C  C104  1  0.78640000  0.37700000  0.25580000  1
  C  C105  1  0.87880000  0.96940000  0.75580000  1
  C  C106  1  0.73550000  0.17240000  0.11570000  1
  C  C107  1  0.94330000  0.88020000  0.61570000  1
  C  C108  1  0.78870000  0.13840000  0.03050000  1
  C  C109  1  0.89210000  0.74180000  0.53050000  1
  C  C110  1  0.59010000  0.31930000  0.41260000  1
  C  C111  1  0.82730000  0.49270000  0.34880000  1
  C  C112  1  0.85610000  0.02150000  0.84880000  1
  C  C113  1  0.09330000  0.32250000  0.91260000  1
  C  C114  1  0.57600000  0.20440000  0.31680000  1
  C  C115  1  0.11240000  0.24080000  0.81680000  1
  C  C116  1  0.66960000  0.57300000  0.59300000  1
  C  C117  1  0.02000000  0.42340000  0.09300000  1
  C  C118  1  0.62650000  0.43270000  0.49920000  1
  C  C119  1  0.06650000  0.37270000  0.99920000  1
  C  C120  1  0.81160000  0.39360000  0.31540000  1
  C  C121  1  0.92180000  0.00380000  0.81540000  1
  C  C122  1  0.86480000  0.11890000  0.99810000  1
  C  C123  1  0.87920000  0.63330000  0.49810000  1
  C  C124  1  0.81100000  0.15530000  0.08910000  1
  C  C125  1  0.93380000  0.77810000  0.58910000  1
  C  C126  1  0.84850000  0.51580000  0.41250000  1
  C  C127  1  0.89670000  0.06400000  0.91250000  1
  C  C128  1  0.68970000  0.86600000  0.97430000  1
  C  C129  1  0.10830000  0.78460000  0.47430000  1
  C  C130  1  0.71840000  0.80130000  0.88890000  1
  C  C131  1  0.08760000  0.67050000  0.38890000  1
  C  C132  1  0.52240000  0.57020000  0.89200000  1
  C  C133  1  0.32180000  0.86960000  0.39200000  1
  C  C134  1  0.49360000  0.62850000  0.97930000  1
  C  C135  1  0.35080000  0.98570000  0.47930000  1
  C  C136  1  0.62370000  0.26700000  0.49370000  1
  C  C137  1  0.22670000  0.37000000  0.99370000  1
  C  C138  1  0.87330000  0.46720000  0.49490000  1
  C  C139  1  0.02770000  0.12160000  0.99490000  1
  C  C140  1  0.79100000  0.88170000  0.00510000  1
  C  C141  1  0.12340000  0.71410000  0.50510000  1
  C  C142  1  0.82190000  0.81600000  0.91530000  1
  C  C143  1  0.09930000  0.59340000  0.41530000  1
  C  C144  1  0.59470000  0.64030000  0.00900000  1
  C  C145  1  0.36870000  0.91430000  0.50900000  1
  C  C146  1  0.62410000  0.57820000  0.91830000  1
  C  C147  1  0.34010000  0.79420000  0.41830000  1
  C  C148  1  0.63750000  0.18570000  0.52300000  1
  C  C149  1  0.33730000  0.38550000  0.02300000  1
  C  C150  1  0.86150000  0.85860000  0.97470000  1
  C  C151  1  0.11610000  0.61320000  0.47470000  1
  H  H152  1  0.38450000  0.93180000  0.54910000  1
  H  H153  1  0.61730000  0.66460000  0.04910000  1
  H  H154  1  0.33720000  0.72980000  0.39600000  1
  H  H155  1  0.66620000  0.55880000  0.89600000  1
  H  H156  1  0.13520000  0.20260000  0.10660000  1
  H  H157  1  0.90400000  0.47140000  0.60660000  1
  H  H158  1  0.18790000  0.09270000  0.95480000  1
  H  H159  1  0.86210000  0.26690000  0.45480000  1
  H  H160  1  0.12500000  0.84480000  0.88960000  1
  H  H161  1  0.04480000  0.26460000  0.38960000  1
  H  H162  1  0.18230000  0.66010000  0.66800000  1
  H  H163  1  0.00790000  0.98570000  0.16800000  1
  H  H164  1  0.55120000  0.35510000  0.99950000  1
  H  H165  1  0.64440000  0.94830000  0.49950000  1
  H  H166  1  0.50170000  0.45320000  0.14810000  1
  H  H167  1  0.69490000  0.14640000  0.64810000  1
  H  H168  1  0.40570000  0.84390000  0.66540000  1
  H  H169  1  0.82150000  0.75970000  0.16540000  1
  H  H170  1  0.30640000  0.22790000  0.15090000  1
  H  H171  1  0.92300000  0.34450000  0.65090000  1
  H  H172  1  0.32000000  0.47400000  0.38600000  1
  H  H173  1  0.91200000  0.56600000  0.88600000  1
  H  H174  1  0.35540000  0.11590000  0.00510000  1
  H  H175  1  0.88920000  0.14970000  0.50510000  1
  H  H176  1  0.24960000  0.81780000  0.84460000  1
  H  H177  1  0.02680000  0.09500000  0.34460000  1
  H  H178  1  0.22670000  0.69050000  0.76700000  1
  H  H179  1  0.07650000  0.04030000  0.26700000  1
  H  H180  1  0.43840000  0.87350000  0.76370000  1
  H  H181  1  0.89020000  0.82530000  0.26370000  1
  H  H182  1  0.29440000  0.30340000  0.33940000  1
  H  H183  1  0.03600000  0.54500000  0.83940000  1
  H  H184  1  0.50460000  0.38790000  0.24110000  1
  H  H185  1  0.85320000  0.23650000  0.74110000  1
  H  H186  1  0.62290000  0.76070000  0.51520000  1
  H  H187  1  0.75450000  0.39230000  0.01520000  1
  H  H188  1  0.55820000  0.15570000  0.01190000  1
  H  H189  1  0.85620000  0.95370000  0.51190000  1
  H  H190  1  0.64370000  0.94290000  0.74580000  1
  H  H191  1  0.80290000  0.60210000  0.24580000  1
  H  H192  1  0.53450000  0.42610000  0.33980000  1
  H  H193  1  0.91370000  0.30530000  0.83980000  1
  H  H194  1  0.29570000  0.99570000  0.15540000  1
  H  H195  1  0.15970000  0.35970000  0.65540000  1
  H  H196  1  0.60400000  0.59470000  0.46330000  1
  H  H197  1  0.86860000  0.35930000  0.96330000  1
  H  H198  1  0.32590000  0.87270000  0.03880000  1
  H  H199  1  0.16610000  0.21290000  0.53880000  1
  H  H200  1  0.67410000  0.12730000  0.96120000  1
  H  H201  1  0.83390000  0.78710000  0.46120000  1
  H  H202  1  0.39600000  0.40530000  0.53670000  1
  H  H203  1  0.13140000  0.64070000  0.03670000  1
  H  H204  1  0.70430000  0.00430000  0.84460000  1
  H  H205  1  0.84030000  0.64030000  0.34460000  1
  H  H206  1  0.46550000  0.57390000  0.66020000  1
  H  H207  1  0.08630000  0.69470000  0.16020000  1
  H  H208  1  0.35630000  0.05710000  0.25420000  1
  H  H209  1  0.19710000  0.39790000  0.75420000  1
  H  H210  1  0.44180000  0.84430000  0.98810000  1
  H  H211  1  0.14380000  0.04630000  0.48810000  1
  H  H212  1  0.37710000  0.23930000  0.48480000  1
  H  H213  1  0.24550000  0.60770000  0.98480000  1
  H  H214  1  0.49540000  0.61210000  0.75890000  1
  H  H215  1  0.14680000  0.76350000  0.25890000  1
  H  H216  1  0.70560000  0.69660000  0.66060000  1
  H  H217  1  0.96400000  0.45500000  0.16060000  1
  H  H218  1  0.56160000  0.12650000  0.23630000  1
  H  H219  1  0.10980000  0.17470000  0.73630000  1
  H  H220  1  0.77330000  0.30950000  0.23300000  1
  H  H221  1  0.92350000  0.95970000  0.73300000  1
  H  H222  1  0.75040000  0.18220000  0.15540000  1
  H  H223  1  0.97320000  0.90500000  0.65540000  1
  H  H224  1  0.64460000  0.88410000  0.99490000  1
  H  H225  1  0.11080000  0.85030000  0.49490000  1
  H  H226  1  0.68000000  0.52600000  0.61400000  1
  H  H227  1  0.08800000  0.43400000  0.11400000  1
  H  H228  1  0.69360000  0.77210000  0.84910000  1
  H  H229  1  0.07700000  0.65550000  0.34910000  1
  H  H230  1  0.59430000  0.15610000  0.33460000  1
  H  H231  1  0.17850000  0.24030000  0.83460000  1
  H  H232  1  0.49830000  0.54680000  0.85190000  1
  H  H233  1  0.30510000  0.85360000  0.35190000  1
  H  H234  1  0.44880000  0.64490000  0.00050000  1
  H  H235  1  0.35560000  0.05170000  0.50050000  1
  H  H236  1  0.81770000  0.33990000  0.33200000  1
  H  H237  1  0.99210000  0.01430000  0.83200000  1
  H  H238  1  0.87500000  0.15520000  0.11040000  1
  H  H239  1  0.95520000  0.73540000  0.61040000  1
  H  H240  1  0.81210000  0.90730000  0.04520000  1
  H  H241  1  0.13790000  0.73310000  0.54520000  1
  H  H242  1  0.86480000  0.79740000  0.89340000  1
  H  H243  1  0.09600000  0.52860000  0.39340000  1
  H  H244  1  0.66280000  0.27020000  0.60400000  1
  H  H245  1  0.33380000  0.44120000  0.10400000  1
  H  H246  1  0.61550000  0.06820000  0.45090000  1
  H  H247  1  0.38270000  0.33540000  0.95090000  1
  N  N248  1  0.11330000  0.43740000  0.47210000  1
  N  N249  1  0.03470000  0.85880000  0.97210000  1
  N  N250  1  0.14730000  0.56050000  0.56260000  1
  N  N251  1  0.00210000  0.91530000  0.06260000  1
  N  N252  1  0.35790000  0.63640000  0.47270000  1
  N  N253  1  0.83630000  0.61480000  0.97270000  1
  N  N254  1  0.40290000  0.75970000  0.56400000  1
  N  N255  1  0.80430000  0.66110000  0.06400000  1
  N  N256  1  0.54320000  0.40520000  0.07800000  1
  N  N257  1  0.67280000  0.03480000  0.57800000  1
  N  N258  1  0.34780000  0.17310000  0.08250000  1
  N  N259  1  0.90940000  0.23470000  0.58250000  1
  N  N260  1  0.17330000  0.92040000  0.05870000  1
  N  N261  1  0.13830000  0.38540000  0.55870000  1
  N  N262  1  0.39870000  0.58490000  0.55840000  1
  N  N263  1  0.97350000  0.65970000  0.05840000  1
  N  N264  1  0.22080000  0.05050000  0.27090000  1
  N  N265  1  0.22040000  0.55010000  0.77090000  1
  N  N266  1  0.35660000  0.82420000  0.91160000  1
  N  N267  1  0.08740000  0.05500000  0.41160000  1
  N  N268  1  0.33480000  0.25440000  0.40720000  1
  N  N269  1  0.15280000  0.57240000  0.90720000  1
  N  N270  1  0.46940000  0.74770000  0.77110000  1
  N  N271  1  0.02340000  0.80170000  0.27110000  1
  N  N272  1  0.53060000  0.25230000  0.22890000  1
  N  N273  1  0.97660000  0.19830000  0.72890000  1
  N  N274  1  0.66520000  0.74560000  0.59280000  1
  N  N275  1  0.84720000  0.42760000  0.09280000  1
  N  N276  1  0.64340000  0.17580000  0.08840000  1
  N  N277  1  0.91260000  0.94500000  0.58840000  1
  N  N278  1  0.77920000  0.94950000  0.72910000  1
  N  N279  1  0.77960000  0.44990000  0.22910000  1
  N  N280  1  0.60130000  0.41510000  0.44160000  1
  N  N281  1  0.02650000  0.34030000  0.94160000  1
  N  N282  1  0.82670000  0.07960000  0.94130000  1
  N  N283  1  0.86170000  0.61460000  0.44130000  1
  N  N284  1  0.65220000  0.82690000  0.91750000  1
  N  N285  1  0.09060000  0.76530000  0.41750000  1
  N  N286  1  0.45680000  0.59480000  0.92200000  1
  N  N287  1  0.32720000  0.96520000  0.42200000  1
  N  N288  1  0.59710000  0.24030000  0.43600000  1
  N  N289  1  0.19570000  0.33890000  0.93600000  1
  N  N290  1  0.64210000  0.36360000  0.52730000  1
  N  N291  1  0.16370000  0.38520000  0.02730000  1
  N  N292  1  0.85270000  0.43950000  0.43740000  1
  N  N293  1  0.99790000  0.08470000  0.93740000  1
  N  N294  1  0.88670000  0.56260000  0.52790000  1
  N  N295  1  0.96530000  0.14120000  0.02790000  1
