# generated using pymatgen
data_EuH13C17O8
_symmetry_space_group_name_H-M   'P 1'
_cell_length_a   8.25460000
_cell_length_b   9.62620000
_cell_length_c   28.04400000
_cell_angle_alpha   90.00000000
_cell_angle_beta   90.00000000
_cell_angle_gamma   90.00000000
_symmetry_Int_Tables_number   1
_chemical_formula_structural   EuH13C17O8
_chemical_formula_sum   'Eu4 H52 C68 O32'
_cell_volume   2228.38831350
_cell_formula_units_Z   4
loop_
 _symmetry_equiv_pos_site_id
 _symmetry_equiv_pos_as_xyz
  1  'x, y, z'
loop_
 _atom_site_type_symbol
 _atom_site_label
 _atom_site_symmetry_multiplicity
 _atom_site_fract_x
 _atom_site_fract_y
 _atom_site_fract_z
 _atom_site_occupancy
  Eu  Eu0  1  0.59298000  0.41456000  0.99623000  1
  Eu  Eu1  1  0.09298000  0.91456000  0.50377000  1
  Eu  Eu2  1  0.59298000  0.08544000  0.49623000  1
  Eu  Eu3  1  0.09298000  0.58544000  0.00377000  1
  H  H4  1  0.22380000  0.31690000  0.92110000  1
  H  H5  1  0.21520000  0.84140000  0.88760000  1
  H  H6  1  0.61060000  0.61060000  0.86340000  1
  H  H7  1  0.67940000  0.30910000  0.86030000  1
  H  H8  1  0.09570000  0.03060000  0.85520000  1
  H  H9  1  0.11350000  0.49550000  0.84420000  1
  H  H10  1  0.99040000  0.90610000  0.83690000  1
  H  H11  1  0.50720000  0.17690000  0.82520000  1
  H  H12  1  0.99130000  0.04710000  0.80890000  1
  H  H13  1  0.45250000  0.30890000  0.79670000  1
  H  H14  1  0.60000000  0.67270000  0.78380000  1
  H  H15  1  0.42470000  0.16040000  0.77520000  1
  H  H16  1  0.11570000  0.42960000  0.76510000  1
  H  H17  1  0.61570000  0.92960000  0.73490000  1
  H  H18  1  0.92470000  0.66040000  0.72480000  1
  H  H19  1  0.10000000  0.17270000  0.71620000  1
  H  H20  1  0.95250000  0.80890000  0.70330000  1
  H  H21  1  0.49130000  0.54710000  0.69110000  1
  H  H22  1  0.00720000  0.67690000  0.67480000  1
  H  H23  1  0.49040000  0.40610000  0.66310000  1
  H  H24  1  0.61350000  0.99550000  0.65580000  1
  H  H25  1  0.59570000  0.53060000  0.64480000  1
  H  H26  1  0.17940000  0.80910000  0.63970000  1
  H  H27  1  0.11060000  0.11060000  0.63660000  1
  H  H28  1  0.71520000  0.34140000  0.61240000  1
  H  H29  1  0.72380000  0.81690000  0.57890000  1
  H  H30  1  0.22380000  0.18310000  0.42110000  1
  H  H31  1  0.21520000  0.65860000  0.38760000  1
  H  H32  1  0.61060000  0.88940000  0.36340000  1
  H  H33  1  0.67940000  0.19090000  0.36030000  1
  H  H34  1  0.09570000  0.46940000  0.35520000  1
  H  H35  1  0.11350000  0.00450000  0.34420000  1
  H  H36  1  0.99040000  0.59390000  0.33690000  1
  H  H37  1  0.50720000  0.32310000  0.32520000  1
  H  H38  1  0.99130000  0.45290000  0.30890000  1
  H  H39  1  0.45250000  0.19110000  0.29670000  1
  H  H40  1  0.60000000  0.82730000  0.28380000  1
  H  H41  1  0.42470000  0.33960000  0.27520000  1
  H  H42  1  0.11570000  0.07040000  0.26510000  1
  H  H43  1  0.61570000  0.57040000  0.23490000  1
  H  H44  1  0.92470000  0.83960000  0.22480000  1
  H  H45  1  0.10000000  0.32730000  0.21620000  1
  H  H46  1  0.95250000  0.69110000  0.20330000  1
  H  H47  1  0.49130000  0.95290000  0.19110000  1
  H  H48  1  0.00720000  0.82310000  0.17480000  1
  H  H49  1  0.49040000  0.09390000  0.16310000  1
  H  H50  1  0.61350000  0.50450000  0.15580000  1
  H  H51  1  0.59570000  0.96940000  0.14480000  1
  H  H52  1  0.17940000  0.69090000  0.13970000  1
  H  H53  1  0.11060000  0.38940000  0.13660000  1
  H  H54  1  0.71520000  0.15860000  0.11240000  1
  H  H55  1  0.72380000  0.68310000  0.07890000  1
  C  C56  1  0.31260000  0.34190000  0.93970000  1
  C  C57  1  0.41210000  0.67530000  0.93480000  1
  C  C58  1  0.89400000  0.44410000  0.91196000  1
  C  C59  1  0.41170000  0.71750000  0.88329000  1
  C  C60  1  0.29310000  0.80700000  0.86676000  1
  C  C61  1  0.89670000  0.40830000  0.86001000  1
  C  C62  1  0.52840000  0.66840000  0.85242000  1
  C  C63  1  0.76640000  0.33410000  0.84107000  1
  C  C64  1  0.02750000  0.44520000  0.83159000  1
  C  C65  1  0.05560000  0.98390000  0.82740000  1
  C  C66  1  0.29050000  0.84530000  0.81911000  1
  C  C67  1  0.52160000  0.70650000  0.80460000  1
  C  C68  1  0.49620000  0.21680000  0.79400000  1
  C  C69  1  0.76830000  0.29790000  0.79311000  1
  C  C70  1  0.40330000  0.79200000  0.78735000  1
  C  C71  1  0.02760000  0.40570000  0.78405000  1
  C  C72  1  0.90140000  0.33230000  0.76389000  1
  C  C73  1  0.40140000  0.83230000  0.73611000  1
  C  C74  1  0.52760000  0.90570000  0.71595000  1
  C  C75  1  0.90330000  0.29200000  0.71265000  1
  C  C76  1  0.26830000  0.79790000  0.70689000  1
  C  C77  1  0.99620000  0.71680000  0.70600000  1
  C  C78  1  0.02160000  0.20650000  0.69540000  1
  C  C79  1  0.79050000  0.34530000  0.68089000  1
  C  C80  1  0.55560000  0.48390000  0.67260000  1
  C  C81  1  0.52750000  0.94520000  0.66841000  1
  C  C82  1  0.26640000  0.83410000  0.65893000  1
  C  C83  1  0.02840000  0.16840000  0.64758000  1
  C  C84  1  0.39670000  0.90830000  0.63999000  1
  C  C85  1  0.79310000  0.30700000  0.63324000  1
  C  C86  1  0.91170000  0.21750000  0.61671000  1
  C  C87  1  0.39400000  0.94410000  0.58804000  1
  C  C88  1  0.91210000  0.17530000  0.56520000  1
  C  C89  1  0.81260000  0.84190000  0.56030000  1
  C  C90  1  0.31260000  0.15810000  0.43970000  1
  C  C91  1  0.41210000  0.82470000  0.43480000  1
  C  C92  1  0.89400000  0.05590000  0.41196000  1
  C  C93  1  0.41170000  0.78250000  0.38329000  1
  C  C94  1  0.29310000  0.69300000  0.36676000  1
  C  C95  1  0.89670000  0.09170000  0.36001000  1
  C  C96  1  0.52840000  0.83160000  0.35242000  1
  C  C97  1  0.76640000  0.16590000  0.34107000  1
  C  C98  1  0.02750000  0.05480000  0.33159000  1
  C  C99  1  0.05560000  0.51610000  0.32740000  1
  C  C100  1  0.29050000  0.65470000  0.31911000  1
  C  C101  1  0.52160000  0.79350000  0.30460000  1
  C  C102  1  0.49620000  0.28320000  0.29400000  1
  C  C103  1  0.76830000  0.20210000  0.29311000  1
  C  C104  1  0.40330000  0.70800000  0.28735000  1
  C  C105  1  0.02760000  0.09430000  0.28405000  1
  C  C106  1  0.90140000  0.16770000  0.26389000  1
  C  C107  1  0.40140000  0.66770000  0.23611000  1
  C  C108  1  0.52760000  0.59430000  0.21595000  1
  C  C109  1  0.90330000  0.20800000  0.21265000  1
  C  C110  1  0.26830000  0.70210000  0.20689000  1
  C  C111  1  0.99620000  0.78320000  0.20600000  1
  C  C112  1  0.02160000  0.29350000  0.19540000  1
  C  C113  1  0.79050000  0.15470000  0.18089000  1
  C  C114  1  0.55560000  0.01610000  0.17260000  1
  C  C115  1  0.52750000  0.55480000  0.16841000  1
  C  C116  1  0.26640000  0.66590000  0.15893000  1
  C  C117  1  0.02840000  0.33160000  0.14758000  1
  C  C118  1  0.39670000  0.59170000  0.13999000  1
  C  C119  1  0.79310000  0.19300000  0.13324000  1
  C  C120  1  0.91170000  0.28250000  0.11671000  1
  C  C121  1  0.39400000  0.55590000  0.08804000  1
  C  C122  1  0.91210000  0.32470000  0.06520000  1
  C  C123  1  0.81260000  0.65810000  0.06030000  1
  O  O124  1  0.28740000  0.41210000  0.97706000  1
  O  O125  1  0.28890000  0.70420000  0.95931000  1
  O  O126  1  0.53440000  0.61420000  0.95088000  1
  O  O127  1  0.78570000  0.38950000  0.93692000  1
  O  O128  1  0.99950000  0.52480000  0.92788000  1
  O  O129  1  0.44770000  0.30480000  0.92638000  1
  O  O130  1  0.18390000  0.93780000  0.80042000  1
  O  O131  1  0.64990000  0.22300000  0.77182000  1
  O  O132  1  0.14990000  0.72300000  0.72818000  1
  O  O133  1  0.68390000  0.43780000  0.69958000  1
  O  O134  1  0.94770000  0.80480000  0.57362000  1
  O  O135  1  0.49950000  0.02480000  0.57212000  1
  O  O136  1  0.28570000  0.88950000  0.56308000  1
  O  O137  1  0.03440000  0.11420000  0.54912000  1
  O  O138  1  0.78890000  0.20420000  0.54069000  1
  O  O139  1  0.78740000  0.91210000  0.52294000  1
  O  O140  1  0.28740000  0.08790000  0.47706000  1
  O  O141  1  0.28890000  0.79580000  0.45931000  1
  O  O142  1  0.53440000  0.88580000  0.45088000  1
  O  O143  1  0.78570000  0.11050000  0.43692000  1
  O  O144  1  0.99950000  0.97520000  0.42788000  1
  O  O145  1  0.44770000  0.19520000  0.42638000  1
  O  O146  1  0.18390000  0.56220000  0.30042000  1
  O  O147  1  0.64990000  0.27700000  0.27182000  1
  O  O148  1  0.14990000  0.77700000  0.22818000  1
  O  O149  1  0.68390000  0.06220000  0.19958000  1
  O  O150  1  0.94770000  0.69520000  0.07362000  1
  O  O151  1  0.49950000  0.47520000  0.07212000  1
  O  O152  1  0.28570000  0.61050000  0.06308000  1
  O  O153  1  0.03440000  0.38580000  0.04912000  1
  O  O154  1  0.78890000  0.29580000  0.04069000  1
  O  O155  1  0.78740000  0.58790000  0.02294000  1
