# generated using pymatgen
data_PrH12C12NO6
_symmetry_space_group_name_H-M   'P 1'
_cell_length_a   7.79650000
_cell_length_b   9.57430000
_cell_length_c   11.46400000
_cell_angle_alpha   91.93000000
_cell_angle_beta   105.87000000
_cell_angle_gamma   103.38000000
_symmetry_Int_Tables_number   1
_chemical_formula_structural   PrH12C12NO6
_chemical_formula_sum   'Pr2 H24 C24 N2 O12'
_cell_volume   796.47278476
_cell_formula_units_Z   2
loop_
 _symmetry_equiv_pos_site_id
 _symmetry_equiv_pos_as_xyz
  1  'x, y, z'
loop_
 _atom_site_type_symbol
 _atom_site_label
 _atom_site_symmetry_multiplicity
 _atom_site_fract_x
 _atom_site_fract_y
 _atom_site_fract_z
 _atom_site_occupancy
  Pr  Pr0  1  0.28634000  0.57990000  0.51780000  1
  Pr  Pr1  1  0.71366000  0.42010000  0.48220000  1
  H  H2  1  0.00460000  0.38860000  0.93980000  1
  H  H3  1  0.01790000  0.05760000  0.24790000  1
  H  H4  1  0.05020000  0.73930000  0.68800000  1
  H  H5  1  0.08710000  0.26200000  0.90870000  1
  H  H6  1  0.10720000  0.16340000  0.69290000  1
  H  H7  1  0.12000000  0.38800000  0.16880000  1
  H  H8  1  0.17440000  0.24580000  0.13950000  1
  H  H9  1  0.20850000  0.54550000  0.85020000  1
  H  H10  1  0.26780000  0.41100000  0.80920000  1
  H  H11  1  0.30760000  0.51550000  0.06090000  1
  H  H12  1  0.35220000  0.95710000  0.50380000  1
  H  H13  1  0.37650000  0.37860000  0.03770000  1
  H  H14  1  0.62350000  0.62140000  0.96230000  1
  H  H15  1  0.64780000  0.04290000  0.49620000  1
  H  H16  1  0.69240000  0.48450000  0.93910000  1
  H  H17  1  0.73220000  0.58900000  0.19080000  1
  H  H18  1  0.79150000  0.45450000  0.14980000  1
  H  H19  1  0.82560000  0.75420000  0.86050000  1
  H  H20  1  0.88000000  0.61200000  0.83120000  1
  H  H21  1  0.89280000  0.83660000  0.30710000  1
  H  H22  1  0.91290000  0.73800000  0.09130000  1
  H  H23  1  0.94980000  0.26070000  0.31200000  1
  H  H24  1  0.98210000  0.94240000  0.75210000  1
  H  H25  1  0.99540000  0.61140000  0.06020000  1
  C  C26  1  0.01370000  0.41970000  0.70630000  1
  C  C27  1  0.05900000  0.94830000  0.70210000  1
  C  C28  1  0.09910000  0.82670000  0.66220000  1
  C  C29  1  0.11430000  0.36560000  0.92870000  1
  C  C30  1  0.13380000  0.07970000  0.66730000  1
  C  C31  1  0.16570000  0.44280000  0.82440000  1
  C  C32  1  0.21910000  0.34990000  0.15600000  1
  C  C33  1  0.24840000  0.08510000  0.59400000  1
  C  C34  1  0.27130000  0.41100000  0.04660000  1
  C  C35  1  0.27780000  0.95470000  0.55520000  1
  C  C36  1  0.33790000  0.22570000  0.55710000  1
  C  C37  1  0.38050000  0.38680000  0.27050000  1
  C  C38  1  0.61950000  0.61320000  0.72950000  1
  C  C39  1  0.66210000  0.77430000  0.44290000  1
  C  C40  1  0.72220000  0.04530000  0.44480000  1
  C  C41  1  0.72870000  0.58900000  0.95340000  1
  C  C42  1  0.75160000  0.91490000  0.40600000  1
  C  C43  1  0.78090000  0.65010000  0.84400000  1
  C  C44  1  0.83430000  0.55720000  0.17560000  1
  C  C45  1  0.86620000  0.92030000  0.33270000  1
  C  C46  1  0.88570000  0.63440000  0.07130000  1
  C  C47  1  0.90090000  0.17330000  0.33780000  1
  C  C48  1  0.94100000  0.05170000  0.29790000  1
  C  C49  1  0.98630000  0.58030000  0.29370000  1
  N  N50  1  0.20500000  0.82720000  0.58800000  1
  N  N51  1  0.79500000  0.17280000  0.41200000  1
  O  O52  1  0.04070000  0.50270000  0.62320000  1
  O  O53  1  0.13500000  0.67240000  0.31350000  1
  O  O54  1  0.27110000  0.33130000  0.57080000  1
  O  O55  1  0.36810000  0.45200000  0.36480000  1
  O  O56  1  0.47330000  0.22950000  0.51690000  1
  O  O57  1  0.47540000  0.64880000  0.73050000  1
  O  O58  1  0.52460000  0.35120000  0.26950000  1
  O  O59  1  0.52670000  0.77050000  0.48310000  1
  O  O60  1  0.63190000  0.54800000  0.63520000  1
  O  O61  1  0.72890000  0.66870000  0.42920000  1
  O  O62  1  0.86500000  0.32760000  0.68650000  1
  O  O63  1  0.95930000  0.49730000  0.37680000  1
