# generated using pymatgen
data_ZnH11C19NO4
_symmetry_space_group_name_H-M   'P 1'
_cell_length_a   8.31100000
_cell_length_b   15.12750000
_cell_length_c   15.36450000
_cell_angle_alpha   90.00000000
_cell_angle_beta   91.85000000
_cell_angle_gamma   90.00000000
_symmetry_Int_Tables_number   1
_chemical_formula_structural   ZnH11C19NO4
_chemical_formula_sum   'Zn4 H44 C76 N4 O16'
_cell_volume   1930.68956275
_cell_formula_units_Z   4
loop_
 _symmetry_equiv_pos_site_id
 _symmetry_equiv_pos_as_xyz
  1  'x, y, z'
loop_
 _atom_site_type_symbol
 _atom_site_label
 _atom_site_symmetry_multiplicity
 _atom_site_fract_x
 _atom_site_fract_y
 _atom_site_fract_z
 _atom_site_occupancy
  Zn  Zn0  1  0.48704000  0.76728000  0.74590000  1
  Zn  Zn1  1  0.98704000  0.73272000  0.74590000  1
  Zn  Zn2  1  0.01296000  0.26728000  0.25410000  1
  Zn  Zn3  1  0.51296000  0.23272000  0.25410000  1
  H  H4  1  0.04500000  0.77280000  0.98310000  1
  H  H5  1  0.54500000  0.72720000  0.98310000  1
  H  H6  1  0.37500000  0.96120000  0.94550000  1
  H  H7  1  0.87500000  0.53880000  0.94550000  1
  H  H8  1  0.70800000  0.96420000  0.93260000  1
  H  H9  1  0.20800000  0.53580000  0.93260000  1
  H  H10  1  0.54050000  0.34670000  0.89540000  1
  H  H11  1  0.04050000  0.15330000  0.89540000  1
  H  H12  1  0.88350000  0.88200000  0.85880000  1
  H  H13  1  0.38350000  0.61800000  0.85880000  1
  H  H14  1  0.50610000  0.38690000  0.75310000  1
  H  H15  1  0.00610000  0.11310000  0.75310000  1
  H  H16  1  0.09250000  0.88320000  0.63460000  1
  H  H17  1  0.59250000  0.61680000  0.63460000  1
  H  H18  1  0.48070000  0.33800000  0.61220000  1
  H  H19  1  0.98070000  0.16200000  0.61220000  1
  H  H20  1  0.28510000  0.96110000  0.56830000  1
  H  H21  1  0.78510000  0.53890000  0.56830000  1
  H  H22  1  0.62140000  0.96410000  0.55100000  1
  H  H23  1  0.12140000  0.53590000  0.55100000  1
  H  H24  1  0.92820000  0.76510000  0.50880000  1
  H  H25  1  0.42820000  0.73490000  0.50880000  1
  H  H26  1  0.57180000  0.26510000  0.49120000  1
  H  H27  1  0.07180000  0.23490000  0.49120000  1
  H  H28  1  0.87860000  0.46410000  0.44900000  1
  H  H29  1  0.37860000  0.03590000  0.44900000  1
  H  H30  1  0.21490000  0.46110000  0.43170000  1
  H  H31  1  0.71490000  0.03890000  0.43170000  1
  H  H32  1  0.01930000  0.83800000  0.38780000  1
  H  H33  1  0.51930000  0.66200000  0.38780000  1
  H  H34  1  0.40750000  0.38320000  0.36540000  1
  H  H35  1  0.90750000  0.11680000  0.36540000  1
  H  H36  1  0.99390000  0.88690000  0.24690000  1
  H  H37  1  0.49390000  0.61310000  0.24690000  1
  H  H38  1  0.61650000  0.38200000  0.14120000  1
  H  H39  1  0.11650000  0.11800000  0.14120000  1
  H  H40  1  0.95950000  0.84670000  0.10460000  1
  H  H41  1  0.45950000  0.65330000  0.10460000  1
  H  H42  1  0.79200000  0.46420000  0.06740000  1
  H  H43  1  0.29200000  0.03580000  0.06740000  1
  H  H44  1  0.12500000  0.46120000  0.05450000  1
  H  H45  1  0.62500000  0.03880000  0.05450000  1
  H  H46  1  0.45500000  0.27280000  0.01690000  1
  H  H47  1  0.95500000  0.22720000  0.01690000  1
  C  C48  1  0.09450000  0.82549000  0.99998000  1
  C  C49  1  0.59450000  0.67451000  0.99998000  1
  C  C50  1  0.29190000  0.93819000  0.97769000  1
  C  C51  1  0.79190000  0.56181000  0.97769000  1
  C  C52  1  0.21910000  0.85921000  0.95166000  1
  C  C53  1  0.71910000  0.64079000  0.95166000  1
  C  C54  1  0.25770000  0.48305000  0.94913000  1
  C  C55  1  0.75770000  0.01695000  0.94913000  1
  C  C56  1  0.45660000  0.36973000  0.92691000  1
  C  C57  1  0.95660000  0.13027000  0.92691000  1
  C  C58  1  0.38270000  0.44891000  0.90018000  1
  C  C59  1  0.88270000  0.05109000  0.90018000  1
  C  C60  1  0.27040000  0.81102000  0.87129000  1
  C  C61  1  0.77040000  0.68898000  0.87129000  1
  C  C62  1  0.43760000  0.49466000  0.82080000  1
  C  C63  1  0.93760000  0.00534000  0.82080000  1
  C  C64  1  0.93040000  0.91357000  0.81436000  1
  C  C65  1  0.43040000  0.58643000  0.81436000  1
  C  C66  1  0.50140000  0.44827000  0.75144000  1
  C  C67  1  0.00140000  0.05173000  0.75144000  1
  C  C68  1  0.05150000  0.91434000  0.68109000  1
  C  C69  1  0.55150000  0.58566000  0.68109000  1
  C  C70  1  0.55820000  0.49369000  0.67954000  1
  C  C71  1  0.05820000  0.00631000  0.67954000  1
  C  C72  1  0.70910000  0.80932000  0.62220000  1
  C  C73  1  0.20910000  0.69068000  0.62220000  1
  C  C74  1  0.62110000  0.44669000  0.60292000  1
  C  C75  1  0.12110000  0.05331000  0.60292000  1
  C  C76  1  0.55980000  0.36391000  0.57911000  1
  C  C77  1  0.05980000  0.13609000  0.57911000  1
  C  C78  1  0.74220000  0.48402000  0.55323000  1
  C  C79  1  0.24220000  0.01598000  0.55323000  1
  C  C80  1  0.76450000  0.85711000  0.54262000  1
  C  C81  1  0.26450000  0.64289000  0.54262000  1
  C  C82  1  0.70210000  0.93901000  0.51850000  1
  C  C83  1  0.20210000  0.56099000  0.51850000  1
  C  C84  1  0.61510000  0.31980000  0.50679000  1
  C  C85  1  0.11510000  0.18020000  0.50679000  1
  C  C86  1  0.88490000  0.81980000  0.49321000  1
  C  C87  1  0.38490000  0.68020000  0.49321000  1
  C  C88  1  0.79790000  0.43901000  0.48150000  1
  C  C89  1  0.29790000  0.06099000  0.48150000  1
  C  C90  1  0.73550000  0.35711000  0.45738000  1
  C  C91  1  0.23550000  0.14289000  0.45738000  1
  C  C92  1  0.75780000  0.98402000  0.44677000  1
  C  C93  1  0.25780000  0.51598000  0.44677000  1
  C  C94  1  0.94020000  0.86391000  0.42089000  1
  C  C95  1  0.44020000  0.63609000  0.42089000  1
  C  C96  1  0.87890000  0.94669000  0.39708000  1
  C  C97  1  0.37890000  0.55331000  0.39708000  1
  C  C98  1  0.79090000  0.30932000  0.37780000  1
  C  C99  1  0.29090000  0.19068000  0.37780000  1
  C  C100  1  0.94180000  0.99369000  0.32046000  1
  C  C101  1  0.44180000  0.50631000  0.32046000  1
  C  C102  1  0.44850000  0.41434000  0.31891000  1
  C  C103  1  0.94850000  0.08566000  0.31891000  1
  C  C104  1  0.99860000  0.94827000  0.24856000  1
  C  C105  1  0.49860000  0.55173000  0.24856000  1
  C  C106  1  0.56960000  0.41357000  0.18564000  1
  C  C107  1  0.06960000  0.08643000  0.18564000  1
  C  C108  1  0.06240000  0.99466000  0.17920000  1
  C  C109  1  0.56240000  0.50534000  0.17920000  1
  C  C110  1  0.22960000  0.31102000  0.12871000  1
  C  C111  1  0.72960000  0.18898000  0.12871000  1
  C  C112  1  0.11730000  0.94891000  0.09982000  1
  C  C113  1  0.61730000  0.55109000  0.09982000  1
  C  C114  1  0.04340000  0.86973000  0.07309000  1
  C  C115  1  0.54340000  0.63027000  0.07309000  1
  C  C116  1  0.24230000  0.98305000  0.05087000  1
  C  C117  1  0.74230000  0.51695000  0.05087000  1
  C  C118  1  0.28090000  0.35921000  0.04834000  1
  C  C119  1  0.78090000  0.14079000  0.04834000  1
  C  C120  1  0.20810000  0.43819000  0.02231000  1
  C  C121  1  0.70810000  0.06181000  0.02231000  1
  C  C122  1  0.40550000  0.32549000  0.00002000  1
  C  C123  1  0.90550000  0.17451000  0.00002000  1
  N  N124  1  0.98839000  0.86861000  0.74669000  1
  N  N125  1  0.48839000  0.63139000  0.74669000  1
  N  N126  1  0.51161000  0.36861000  0.25331000  1
  N  N127  1  0.01161000  0.13139000  0.25331000  1
  O  O128  1  0.69490000  0.75741000  0.84779000  1
  O  O129  1  0.19490000  0.74259000  0.84779000  1
  O  O130  1  0.38890000  0.84231000  0.83227000  1
  O  O131  1  0.88890000  0.65769000  0.83227000  1
  O  O132  1  0.58970000  0.84146000  0.65994000  1
  O  O133  1  0.08970000  0.65854000  0.65994000  1
  O  O134  1  0.28220000  0.75955000  0.64650000  1
  O  O135  1  0.78220000  0.74045000  0.64650000  1
  O  O136  1  0.21780000  0.25955000  0.35350000  1
  O  O137  1  0.71780000  0.24045000  0.35350000  1
  O  O138  1  0.91030000  0.34146000  0.34006000  1
  O  O139  1  0.41030000  0.15854000  0.34006000  1
  O  O140  1  0.11110000  0.34231000  0.16773000  1
  O  O141  1  0.61110000  0.15769000  0.16773000  1
  O  O142  1  0.80510000  0.25741000  0.15221000  1
  O  O143  1  0.30510000  0.24259000  0.15221000  1
