# generated using pymatgen
data_MnH16C24(NO2)2
_symmetry_space_group_name_H-M   'P 1'
_cell_length_a   9.78210000
_cell_length_b   16.10470000
_cell_length_c   19.91600000
_cell_angle_alpha   90.00000000
_cell_angle_beta   90.00000000
_cell_angle_gamma   93.58100000
_symmetry_Int_Tables_number   1
_chemical_formula_structural   MnH16C24(NO2)2
_chemical_formula_sum   'Mn4 H64 C96 N8 O16'
_cell_volume   3131.39651706
_cell_formula_units_Z   4
loop_
 _symmetry_equiv_pos_site_id
 _symmetry_equiv_pos_as_xyz
  1  'x, y, z'
loop_
 _atom_site_type_symbol
 _atom_site_label
 _atom_site_symmetry_multiplicity
 _atom_site_fract_x
 _atom_site_fract_y
 _atom_site_fract_z
 _atom_site_occupancy
  Mn  Mn0  1  0.00000000  0.50000000  0.00000000  1
  Mn  Mn1  1  1.00000000  1.00000000  0.50000000  1
  Mn  Mn2  1  0.50000000  0.50000000  0.00000000  1
  Mn  Mn3  1  0.50000000  0.00000000  0.50000000  1
  H  H4  1  0.99350000  0.17260000  0.38780000  1
  H  H5  1  0.99350000  0.67260000  0.11220000  1
  H  H6  1  0.95410000  0.24210000  0.79750000  1
  H  H7  1  0.95410000  0.74210000  0.70250000  1
  H  H8  1  0.90430000  0.69590000  0.80250000  1
  H  H9  1  0.90430000  0.19590000  0.69750000  1
  H  H10  1  0.86320000  0.60870000  0.89170000  1
  H  H11  1  0.86320000  0.10870000  0.60830000  1
  H  H12  1  0.80260000  0.42110000  0.80030000  1
  H  H13  1  0.80260000  0.92110000  0.69970000  1
  H  H14  1  0.74750000  0.91920000  0.41580000  1
  H  H15  1  0.74750000  0.41920000  0.08420000  1
  H  H16  1  0.74100000  0.84020000  0.79200000  1
  H  H17  1  0.74100000  0.34020000  0.70800000  1
  H  H18  1  0.69290000  0.83330000  0.32640000  1
  H  H19  1  0.69290000  0.33333333  0.17360000  1
  H  H20  1  0.65640000  0.72000000  0.27000000  1
  H  H21  1  0.65640000  0.22000000  0.23000000  1
  H  H22  1  0.61820000  0.77880000  0.87310000  1
  H  H23  1  0.61820000  0.27880000  0.62690000  1
  H  H24  1  0.60520000  0.13440000  0.32230000  1
  H  H25  1  0.60520000  0.63440000  0.17770000  1
  H  H26  1  0.59110000  0.07900000  0.75080000  1
  H  H27  1  0.59110000  0.57900000  0.74920000  1
  H  H28  1  0.58580000  0.25900000  0.92000000  1
  H  H29  1  0.58580000  0.75900000  0.58000000  1
  H  H30  1  0.57360000  0.68960000  0.96180000  1
  H  H31  1  0.57360000  0.18960000  0.53820000  1
  H  H32  1  0.54600000  0.17110000  0.82930000  1
  H  H33  1  0.54600000  0.67110000  0.67070000  1
  H  H34  1  0.54150000  0.49670000  0.84130000  1
  H  H35  1  0.54150000  0.99670000  0.65870000  1
  H  H36  1  0.45850000  0.00330000  0.34130000  1
  H  H37  1  0.45850000  0.50330000  0.15870000  1
  H  H38  1  0.45400000  0.32890000  0.32930000  1
  H  H39  1  0.45400000  0.82890000  0.17070000  1
  H  H40  1  0.42640000  0.81040000  0.46180000  1
  H  H41  1  0.42640000  0.31040000  0.03820000  1
  H  H42  1  0.41420000  0.24100000  0.42000000  1
  H  H43  1  0.41420000  0.74100000  0.08000000  1
  H  H44  1  0.40890000  0.42100000  0.25080000  1
  H  H45  1  0.40890000  0.92100000  0.24920000  1
  H  H46  1  0.39480000  0.36560000  0.82230000  1
  H  H47  1  0.39480000  0.86560000  0.67770000  1
  H  H48  1  0.38180000  0.72120000  0.37310000  1
  H  H49  1  0.38180000  0.22120000  0.12690000  1
  H  H50  1  0.34360000  0.78000000  0.77000000  1
  H  H51  1  0.34360000  0.28000000  0.73000000  1
  H  H52  1  0.30710000  0.66666667  0.82640000  1
  H  H53  1  0.30710000  0.16670000  0.67360000  1
  H  H54  1  0.25900000  0.65980000  0.29200000  1
  H  H55  1  0.25900000  0.15980000  0.20800000  1
  H  H56  1  0.25250000  0.58080000  0.91580000  1
  H  H57  1  0.25250000  0.08080000  0.58420000  1
  H  H58  1  0.19740000  0.07890000  0.30030000  1
  H  H59  1  0.19740000  0.57890000  0.19970000  1
  H  H60  1  0.13680000  0.89130000  0.39170000  1
  H  H61  1  0.13680000  0.39130000  0.10830000  1
  H  H62  1  0.09570000  0.80410000  0.30250000  1
  H  H63  1  0.09570000  0.30410000  0.19750000  1
  H  H64  1  0.04590000  0.25790000  0.29750000  1
  H  H65  1  0.04590000  0.75790000  0.20250000  1
  H  H66  1  0.00650000  0.32740000  0.88780000  1
  H  H67  1  0.00650000  0.82740000  0.61220000  1
  C  C68  1  0.97890000  0.67320000  0.82500000  1
  C  C69  1  0.97890000  0.17320000  0.67500000  1
  C  C70  1  0.95540000  0.62080000  0.87830000  1
  C  C71  1  0.95540000  0.12080000  0.62170000  1
  C  C72  1  0.95530000  0.23380000  0.30250000  1
  C  C73  1  0.95530000  0.73380000  0.19750000  1
  C  C74  1  0.92390000  0.18350000  0.35640000  1
  C  C75  1  0.92390000  0.68350000  0.14360000  1
  C  C76  1  0.88730000  0.80680000  0.30390000  1
  C  C77  1  0.88730000  0.30680000  0.19610000  1
  C  C78  1  0.85500000  0.25030000  0.25410000  1
  C  C79  1  0.85500000  0.75030000  0.24590000  1
  C  C80  1  0.81980000  0.89550000  0.39220000  1
  C  C81  1  0.81980000  0.39550000  0.10780000  1
  C  C82  1  0.79270000  0.14830000  0.36610000  1
  C  C83  1  0.79270000  0.64830000  0.13390000  1
  C  C84  1  0.78610000  0.84360000  0.33900000  1
  C  C85  1  0.78610000  0.34360000  0.16100000  1
  C  C86  1  0.75750000  0.09610000  0.42800000  1
  C  C87  1  0.75750000  0.59610000  0.07200000  1
  C  C88  1  0.74720000  0.37100000  0.80630000  1
  C  C89  1  0.74720000  0.87100000  0.69370000  1
  C  C90  1  0.73720000  0.40310000  0.93000000  1
  C  C91  1  0.73720000  0.90310000  0.57000000  1
  C  C92  1  0.72530000  0.21170000  0.26250000  1
  C  C93  1  0.72530000  0.71170000  0.23750000  1
  C  C94  1  0.71370000  0.32180000  0.75160000  1
  C  C95  1  0.71370000  0.82180000  0.74840000  1
  C  C96  1  0.70100000  0.34860000  0.87050000  1
  C  C97  1  0.70100000  0.84860000  0.62950000  1
  C  C98  1  0.69440000  0.16070000  0.31780000  1
  C  C99  1  0.69440000  0.66070000  0.18220000  1
  C  C100  1  0.64020000  0.24540000  0.75910000  1
  C  C101  1  0.64020000  0.74540000  0.74090000  1
  C  C102  1  0.62220000  0.27460000  0.87730000  1
  C  C103  1  0.62220000  0.77460000  0.62270000  1
  C  C104  1  0.61170000  0.69030000  0.79950000  1
  C  C105  1  0.61170000  0.19030000  0.70050000  1
  C  C106  1  0.60420000  0.72080000  0.86490000  1
  C  C107  1  0.60420000  0.22080000  0.63510000  1
  C  C108  1  0.59580000  0.22300000  0.82280000  1
  C  C109  1  0.59580000  0.72300000  0.67720000  1
  C  C110  1  0.58760000  0.60380000  0.79240000  1
  C  C111  1  0.58760000  0.10380000  0.70760000  1
  C  C112  1  0.57670000  0.66710000  0.91780000  1
  C  C113  1  0.57670000  0.16710000  0.58220000  1
  C  C114  1  0.55890000  0.55480000  0.84780000  1
  C  C115  1  0.55890000  0.05480000  0.65220000  1
  C  C116  1  0.44110000  0.94520000  0.34780000  1
  C  C117  1  0.44110000  0.44520000  0.15220000  1
  C  C118  1  0.42330000  0.83290000  0.41780000  1
  C  C119  1  0.42330000  0.33290000  0.08220000  1
  C  C120  1  0.41240000  0.89620000  0.29240000  1
  C  C121  1  0.41240000  0.39620000  0.20760000  1
  C  C122  1  0.40420000  0.27700000  0.32280000  1
  C  C123  1  0.40420000  0.77700000  0.17720000  1
  C  C124  1  0.39580000  0.77920000  0.36490000  1
  C  C125  1  0.39580000  0.27920000  0.13510000  1
  C  C126  1  0.38830000  0.80970000  0.29950000  1
  C  C127  1  0.38830000  0.30970000  0.20050000  1
  C  C128  1  0.37780000  0.22540000  0.37730000  1
  C  C129  1  0.37780000  0.72540000  0.12270000  1
  C  C130  1  0.35980000  0.25460000  0.25910000  1
  C  C131  1  0.35980000  0.75460000  0.24090000  1
  C  C132  1  0.30560000  0.33930000  0.81780000  1
  C  C133  1  0.30560000  0.83930000  0.68220000  1
  C  C134  1  0.29900000  0.15140000  0.37050000  1
  C  C135  1  0.29900000  0.65140000  0.12950000  1
  C  C136  1  0.28630000  0.17820000  0.25160000  1
  C  C137  1  0.28630000  0.67820000  0.24840000  1
  C  C138  1  0.27470000  0.28830000  0.76250000  1
  C  C139  1  0.27470000  0.78830000  0.73750000  1
  C  C140  1  0.26280000  0.09690000  0.43000000  1
  C  C141  1  0.26280000  0.59690000  0.07000000  1
  C  C142  1  0.25280000  0.12900000  0.30630000  1
  C  C143  1  0.25280000  0.62900000  0.19370000  1
  C  C144  1  0.24250000  0.40390000  0.92800000  1
  C  C145  1  0.24250000  0.90390000  0.57200000  1
  C  C146  1  0.21390000  0.65640000  0.83900000  1
  C  C147  1  0.21390000  0.15640000  0.66100000  1
  C  C148  1  0.20730000  0.35170000  0.86610000  1
  C  C149  1  0.20730000  0.85170000  0.63390000  1
  C  C150  1  0.18020000  0.60450000  0.89220000  1
  C  C151  1  0.18020000  0.10450000  0.60780000  1
  C  C152  1  0.14500000  0.24970000  0.75410000  1
  C  C153  1  0.14500000  0.74970000  0.74590000  1
  C  C154  1  0.11270000  0.69320000  0.80390000  1
  C  C155  1  0.11270000  0.19320000  0.69610000  1
  C  C156  1  0.07610000  0.31650000  0.85640000  1
  C  C157  1  0.07610000  0.81650000  0.64360000  1
  C  C158  1  0.04470000  0.26620000  0.80250000  1
  C  C159  1  0.04470000  0.76620000  0.69750000  1
  C  C160  1  0.04460000  0.87920000  0.37830000  1
  C  C161  1  0.04460000  0.37920000  0.12170000  1
  C  C162  1  0.02110000  0.82680000  0.32500000  1
  C  C163  1  0.02110000  0.32680000  0.17500000  1
  N  N164  1  0.94740000  0.91430000  0.41250000  1
  N  N165  1  0.94740000  0.41430000  0.08750000  1
  N  N166  1  0.55410000  0.58450000  0.91030000  1
  N  N167  1  0.55410000  0.08450000  0.58970000  1
  N  N168  1  0.44590000  0.91550000  0.41030000  1
  N  N169  1  0.44590000  0.41550000  0.08970000  1
  N  N170  1  0.05260000  0.58570000  0.91250000  1
  N  N171  1  0.05260000  0.08570000  0.58750000  1
  O  O172  1  0.85480000  0.43780000  0.93060000  1
  O  O173  1  0.85480000  0.93780000  0.56940000  1
  O  O174  1  0.84990000  0.08740000  0.46990000  1
  O  O175  1  0.84990000  0.58740000  0.03010000  1
  O  O176  1  0.64560000  0.40870000  0.97450000  1
  O  O177  1  0.64560000  0.90870000  0.52550000  1
  O  O178  1  0.63530000  0.06780000  0.43190000  1
  O  O179  1  0.63530000  0.56780000  0.06810000  1
  O  O180  1  0.36470000  0.43220000  0.93190000  1
  O  O181  1  0.36470000  0.93220000  0.56810000  1
  O  O182  1  0.35440000  0.09130000  0.47450000  1
  O  O183  1  0.35440000  0.59130000  0.02550000  1
  O  O184  1  0.15010000  0.41260000  0.96990000  1
  O  O185  1  0.15010000  0.91260000  0.53010000  1
  O  O186  1  0.14520000  0.06220000  0.43060000  1
  O  O187  1  0.14520000  0.56220000  0.06940000  1
