# generated using pymatgen
data_Dy2CuH6C10N4O9
_symmetry_space_group_name_H-M   'P 1'
_cell_length_a   7.00540000
_cell_length_b   15.98704587
_cell_length_c   15.98704587
_cell_angle_alpha   117.90441559
_cell_angle_beta   98.39890323
_cell_angle_gamma   98.39890323
_symmetry_Int_Tables_number   1
_chemical_formula_structural   Dy2CuH6C10N4O9
_chemical_formula_sum   'Dy6 Cu3 H18 C30 N12 O27'
_cell_volume   1517.51919549
_cell_formula_units_Z   3
loop_
 _symmetry_equiv_pos_site_id
 _symmetry_equiv_pos_as_xyz
  1  'x, y, z'
loop_
 _atom_site_type_symbol
 _atom_site_label
 _atom_site_symmetry_multiplicity
 _atom_site_fract_x
 _atom_site_fract_y
 _atom_site_fract_z
 _atom_site_occupancy
  C  C0  1  0.90630000  0.62280000  0.54810000  1
  C  C1  1  0.35040000  0.90570000  0.29450000  1
  C  C2  1  0.11450000  0.97130000  0.24450000  1
  C  C3  1  0.83850000  0.31980000  0.96800000  1
  C  C4  1  0.14320000  0.27320000  0.02870000  1
  C  C5  1  0.28350000  0.92530000  0.37720000  1
  C  C6  1  0.04200000  0.98800000  0.32680000  1
  C  C7  1  0.05590000  0.70550000  0.61120000  1
  C  C8  1  0.51870000  0.64820000  0.68020000  1
  C  C9  1  0.71520000  0.67320000  0.66120000  1
  C  C10  1  0.05400000  0.33880000  0.01200000  1
  C  C11  1  0.87050000  0.03200000  0.35180000  1
  C  C12  1  0.64180000  0.54810000  0.92530000  1
  C  C13  1  0.87000000  0.75550000  0.72680000  1
  C  C14  1  0.44470000  0.38880000  0.09430000  1
  C  C15  1  0.55530000  0.61120000  0.90570000  1
  C  C16  1  0.13000000  0.24450000  0.27320000  1
  C  C17  1  0.35820000  0.45190000  0.07470000  1
  C  C18  1  0.12950000  0.96800000  0.64820000  1
  C  C19  1  0.94600000  0.66120000  0.98800000  1
  C  C20  1  0.28480000  0.32680000  0.33880000  1
  C  C21  1  0.48130000  0.35180000  0.31980000  1
  C  C22  1  0.94410000  0.29450000  0.38880000  1
  C  C23  1  0.95800000  0.01200000  0.67320000  1
  C  C24  1  0.71650000  0.07470000  0.62280000  1
  C  C25  1  0.85680000  0.72680000  0.97130000  1
  C  C26  1  0.16150000  0.68020000  0.03200000  1
  C  C27  1  0.88550000  0.02870000  0.75550000  1
  C  C28  1  0.64960000  0.09430000  0.70550000  1
  C  C29  1  0.09370000  0.37720000  0.45190000  1
  Cu  Cu30  1  0.50000000  0.50000000  0.50000000  1
  Cu  Cu31  1  0.00000000  1.00000000  0.50000000  1
  Cu  Cu32  1  0.00000000  0.50000000  0.00000000  1
  Dy  Dy33  1  0.72362000  0.08831000  0.93549000  1
  Dy  Dy34  1  0.78813000  0.06451000  0.15282000  1
  Dy  Dy35  1  0.36469000  0.15282000  0.08831000  1
  Dy  Dy36  1  0.63531000  0.84718000  0.91169000  1
  Dy  Dy37  1  0.21187000  0.93549000  0.84718000  1
  Dy  Dy38  1  0.27638000  0.91169000  0.06451000  1
  H  H39  1  0.35024667  0.13758333  0.89373667  1
  H  H40  1  0.92280000  0.57700000  0.48830000  1
  H  H41  1  0.45760000  0.87680000  0.28470000  1
  H  H42  1  0.17290000  0.71530000  0.59210000  1
  H  H43  1  0.34580000  0.91130000  0.42300000  1
  H  H44  1  0.45651000  0.10626333  0.24384667  1
  H  H45  1  0.78733667  0.24384667  0.13758333  1
  H  H46  1  0.56550000  0.48830000  0.91130000  1
  H  H47  1  0.41920000  0.59210000  0.87680000  1
  H  H48  1  0.58080000  0.40790000  0.12320000  1
  H  H49  1  0.43450000  0.51170000  0.08870000  1
  H  H50  1  0.21266333  0.75615333  0.86241667  1
  H  H51  1  0.54349000  0.89373667  0.75615333  1
  H  H52  1  0.65420000  0.08870000  0.57700000  1
  H  H53  1  0.82710000  0.28470000  0.40790000  1
  H  H54  1  0.54240000  0.12320000  0.71530000  1
  H  H55  1  0.07720000  0.42300000  0.51170000  1
  H  H56  1  0.64975333  0.86241667  0.10626333  1
  N  N57  1  0.26990000  0.92680000  0.22870000  1
  N  N58  1  0.73800000  0.60990000  0.57360000  1
  N  N59  1  0.12810000  0.96370000  0.39010000  1
  N  N60  1  0.34310000  0.30190000  0.07320000  1
  N  N61  1  0.16440000  0.42640000  0.03630000  1
  N  N62  1  0.04120000  0.77130000  0.69810000  1
  N  N63  1  0.95880000  0.22870000  0.30190000  1
  N  N64  1  0.83560000  0.57360000  0.96370000  1
  N  N65  1  0.65690000  0.69810000  0.92680000  1
  N  N66  1  0.87190000  0.03630000  0.60990000  1
  N  N67  1  0.26200000  0.39010000  0.42640000  1
  N  N68  1  0.73010000  0.07320000  0.77130000  1
  O  O69  1  0.17933333  0.00000000  0.00000000  1
  O  O70  1  0.50000000  0.00000000  0.00000000  1
  O  O71  1  0.82066667  0.00000000  0.00000000  1
  O  O72  1  0.39420000  0.09940000  0.92360000  1
  O  O73  1  0.04950000  0.99200000  0.17880000  1
  O  O74  1  0.39650000  0.57070000  0.61280000  1
  O  O75  1  0.71950000  0.24330000  0.94790000  1
  O  O76  1  0.05750000  0.18680000  0.00800000  1
  O  O77  1  0.47060000  0.07640000  0.17580000  1
  O  O78  1  0.70520000  0.17580000  0.09940000  1
  O  O79  1  0.78370000  0.38720000  0.95790000  1
  O  O80  1  0.77160000  0.05210000  0.29540000  1
  O  O81  1  0.12930000  0.17880000  0.18680000  1
  O  O82  1  0.47620000  0.70460000  0.75670000  1
  O  O83  1  0.82580000  0.04210000  0.42930000  1
  O  O84  1  0.17420000  0.95790000  0.57070000  1
  O  O85  1  0.52380000  0.29540000  0.24330000  1
  O  O86  1  0.87070000  0.82120000  0.81320000  1
  O  O87  1  0.22840000  0.94790000  0.70460000  1
  O  O88  1  0.21630000  0.61280000  0.04210000  1
  O  O89  1  0.29480000  0.82420000  0.90060000  1
  O  O90  1  0.52940000  0.92360000  0.82420000  1
  O  O91  1  0.94250000  0.81320000  0.99200000  1
  O  O92  1  0.28050000  0.75670000  0.05210000  1
  O  O93  1  0.60350000  0.42930000  0.38720000  1
  O  O94  1  0.95050000  0.00800000  0.82120000  1
  O  O95  1  0.60580000  0.90060000  0.07640000  1
