# generated using pymatgen
data_CuH8(C5N3)2
_symmetry_space_group_name_H-M   'P 1'
_cell_length_a   7.07240000
_cell_length_b   11.54050000
_cell_length_c   13.66329118
_cell_angle_alpha   114.98100166
_cell_angle_beta   104.99947915
_cell_angle_gamma   90.00000000
_symmetry_Int_Tables_number   1
_chemical_formula_structural   CuH8(C5N3)2
_chemical_formula_sum   'Cu2 H16 C20 N12'
_cell_volume   968.77710270
_cell_formula_units_Z   2
loop_
 _symmetry_equiv_pos_site_id
 _symmetry_equiv_pos_as_xyz
  1  'x, y, z'
loop_
 _atom_site_type_symbol
 _atom_site_label
 _atom_site_symmetry_multiplicity
 _atom_site_fract_x
 _atom_site_fract_y
 _atom_site_fract_z
 _atom_site_occupancy
  C  C0  1  0.20526000  0.23086000  0.21692000  1
  C  C1  1  0.01166000  0.98606000  0.21692000  1
  C  C2  1  0.38860000  0.28930000  0.27720000  1
  C  C3  1  0.88860000  0.98790000  0.27720000  1
  C  C4  1  0.44570000  0.39870000  0.39140000  1
  C  C5  1  0.94570000  0.99270000  0.39140000  1
  C  C6  1  0.31180000  0.45100000  0.44480000  1
  C  C7  1  0.63300000  0.45100000  0.44480000  1
  C  C8  1  0.81180000  0.99380000  0.44480000  1
  C  C9  1  0.13300000  0.99380000  0.44480000  1
  C  C10  1  0.36700000  0.54900000  0.55520000  1
  C  C11  1  0.68820000  0.54900000  0.55520000  1
  C  C12  1  0.86700000  0.00620000  0.55520000  1
  C  C13  1  0.18820000  0.00620000  0.55520000  1
  C  C14  1  0.55430000  0.60130000  0.60860000  1
  C  C15  1  0.05430000  0.00730000  0.60860000  1
  C  C16  1  0.61140000  0.71070000  0.72280000  1
  C  C17  1  0.11140000  0.01210000  0.72280000  1
  C  C18  1  0.48834000  0.76914000  0.78308000  1
  C  C19  1  0.29474000  0.01394000  0.78308000  1
  Cu  Cu20  1  0.00000000  0.00000000  0.00000000  1
  Cu  Cu21  1  0.50000000  0.00000000  0.00000000  1
  H  H22  1  0.15060000  0.98610000  0.23900000  1
  H  H23  1  0.58840000  0.98610000  0.23900000  1
  H  H24  1  0.65060000  0.25290000  0.23900000  1
  H  H25  1  0.08840000  0.25290000  0.23900000  1
  H  H26  1  0.23110000  0.98590000  0.40700000  1
  H  H27  1  0.67590000  0.98590000  0.40700000  1
  H  H28  1  0.73110000  0.42110000  0.40700000  1
  H  H29  1  0.17590000  0.42110000  0.40700000  1
  H  H30  1  0.32410000  0.01410000  0.59300000  1
  H  H31  1  0.76890000  0.01410000  0.59300000  1
  H  H32  1  0.82410000  0.57890000  0.59300000  1
  H  H33  1  0.26890000  0.57890000  0.59300000  1
  H  H34  1  0.41160000  0.01390000  0.76100000  1
  H  H35  1  0.84940000  0.01390000  0.76100000  1
  H  H36  1  0.91160000  0.74710000  0.76100000  1
  H  H37  1  0.34940000  0.74710000  0.76100000  1
  N  N38  1  0.21611000  0.13521000  0.11922000  1
  N  N39  1  0.40311000  0.13521000  0.11922000  1
  N  N40  1  0.71611000  0.98401000  0.11922000  1
  N  N41  1  0.90311000  0.98401000  0.11922000  1
  N  N42  1  0.51166000  0.23086000  0.21692000  1
  N  N43  1  0.70526000  0.98606000  0.21692000  1
  N  N44  1  0.79474000  0.76914000  0.78308000  1
  N  N45  1  0.98834000  0.01394000  0.78308000  1
  N  N46  1  0.59689000  0.86479000  0.88078000  1
  N  N47  1  0.78389000  0.86479000  0.88078000  1
  N  N48  1  0.09689000  0.01599000  0.88078000  1
  N  N49  1  0.28389000  0.01599000  0.88078000  1
