# generated using pymatgen
data_Ce2H9C21(NO4)3
_symmetry_space_group_name_H-M   'P 1'
_cell_length_a   8.11620000
_cell_length_b   15.67090000
_cell_length_c   30.28420000
_cell_angle_alpha   90.00000000
_cell_angle_beta   90.00000000
_cell_angle_gamma   90.00000000
_symmetry_Int_Tables_number   1
_chemical_formula_structural   Ce2H9C21(NO4)3
_chemical_formula_sum   'Ce8 H36 C84 N12 O48'
_cell_volume   3851.79163207
_cell_formula_units_Z   4
loop_
 _symmetry_equiv_pos_site_id
 _symmetry_equiv_pos_as_xyz
  1  'x, y, z'
loop_
 _atom_site_type_symbol
 _atom_site_label
 _atom_site_symmetry_multiplicity
 _atom_site_fract_x
 _atom_site_fract_y
 _atom_site_fract_z
 _atom_site_occupancy
  Ce  Ce0  1  0.93911000  0.79607000  0.90869000  1
  Ce  Ce1  1  0.93911000  0.79607000  0.59131000  1
  Ce  Ce2  1  0.56089000  0.29607000  0.40869000  1
  Ce  Ce3  1  0.56089000  0.29607000  0.09131000  1
  Ce  Ce4  1  0.43911000  0.70393000  0.90869000  1
  Ce  Ce5  1  0.43911000  0.70393000  0.59131000  1
  Ce  Ce6  1  0.06089000  0.20393000  0.40869000  1
  Ce  Ce7  1  0.06089000  0.20393000  0.09131000  1
  H  H8  1  0.99860000  0.44660000  0.39040000  1
  H  H9  1  0.99860000  0.44660000  0.10960000  1
  H  H10  1  0.97050000  0.24730000  0.25000000  1
  H  H11  1  0.88900000  0.65690000  0.45390000  1
  H  H12  1  0.88900000  0.65690000  0.04610000  1
  H  H13  1  0.78700000  0.97800000  0.49150000  1
  H  H14  1  0.78700000  0.97800000  0.00850000  1
  H  H15  1  0.78460000  0.92920000  0.81480000  1
  H  H16  1  0.78460000  0.92920000  0.68520000  1
  H  H17  1  0.71540000  0.42920000  0.31480000  1
  H  H18  1  0.71540000  0.42920000  0.18520000  1
  H  H19  1  0.71300000  0.47800000  0.99150000  1
  H  H20  1  0.71300000  0.47800000  0.50850000  1
  H  H21  1  0.61100000  0.15690000  0.95390000  1
  H  H22  1  0.61100000  0.15690000  0.54610000  1
  H  H23  1  0.52950000  0.74730000  0.75000000  1
  H  H24  1  0.50140000  0.94660000  0.89040000  1
  H  H25  1  0.50140000  0.94660000  0.60960000  1
  H  H26  1  0.49860000  0.05340000  0.39040000  1
  H  H27  1  0.49860000  0.05340000  0.10960000  1
  H  H28  1  0.47050000  0.25270000  0.25000000  1
  H  H29  1  0.38900000  0.84310000  0.45390000  1
  H  H30  1  0.38900000  0.84310000  0.04610000  1
  H  H31  1  0.28700000  0.52200000  0.49150000  1
  H  H32  1  0.28700000  0.52200000  0.00850000  1
  H  H33  1  0.28460000  0.57080000  0.81480000  1
  H  H34  1  0.28460000  0.57080000  0.68520000  1
  H  H35  1  0.21540000  0.07080000  0.31480000  1
  H  H36  1  0.21540000  0.07080000  0.18520000  1
  H  H37  1  0.21300000  0.02200000  0.99150000  1
  H  H38  1  0.21300000  0.02200000  0.50850000  1
  H  H39  1  0.11100000  0.34310000  0.95390000  1
  H  H40  1  0.11100000  0.34310000  0.54610000  1
  H  H41  1  0.02950000  0.75270000  0.75000000  1
  H  H42  1  0.00140000  0.55340000  0.89040000  1
  H  H43  1  0.00140000  0.55340000  0.60960000  1
  C  C44  1  0.97680000  0.51330000  0.91295000  1
  C  C45  1  0.97680000  0.51330000  0.58705000  1
  C  C46  1  0.95960000  0.60910000  0.44993000  1
  C  C47  1  0.95960000  0.60910000  0.05007000  1
  C  C48  1  0.90820000  0.40080000  0.97880000  1
  C  C49  1  0.90820000  0.40080000  0.52120000  1
  C  C50  1  0.89900000  0.29530000  0.25000000  1
  C  C51  1  0.89850000  0.29140000  0.33181000  1
  C  C52  1  0.89850000  0.29140000  0.16819000  1
  C  C53  1  0.88420000  0.34130000  0.48313000  1
  C  C54  1  0.88420000  0.34130000  0.01687000  1
  C  C55  1  0.84570000  0.33110000  0.28963000  1
  C  C56  1  0.84570000  0.33110000  0.21037000  1
  C  C57  1  0.84320000  0.52900000  0.93974000  1
  C  C58  1  0.84320000  0.52900000  0.56026000  1
  C  C59  1  0.80660000  0.47020000  0.97308000  1
  C  C60  1  0.80660000  0.47020000  0.52692000  1
  C  C61  1  0.76400000  0.10720000  0.43543000  1
  C  C62  1  0.76400000  0.10720000  0.06457000  1
  C  C63  1  0.75170000  0.90380000  0.78767000  1
  C  C64  1  0.75170000  0.90380000  0.71233000  1
  C  C65  1  0.74830000  0.40380000  0.28767000  1
  C  C66  1  0.74830000  0.40380000  0.21233000  1
  C  C67  1  0.73600000  0.60720000  0.93543000  1
  C  C68  1  0.73600000  0.60720000  0.56457000  1
  C  C69  1  0.69340000  0.97020000  0.47308000  1
  C  C70  1  0.69340000  0.97020000  0.02692000  1
  C  C71  1  0.65680000  0.02900000  0.43974000  1
  C  C72  1  0.65680000  0.02900000  0.06026000  1
  C  C73  1  0.65430000  0.83110000  0.78963000  1
  C  C74  1  0.65430000  0.83110000  0.71037000  1
  C  C75  1  0.61580000  0.84130000  0.98313000  1
  C  C76  1  0.61580000  0.84130000  0.51687000  1
  C  C77  1  0.60150000  0.79140000  0.83181000  1
  C  C78  1  0.60150000  0.79140000  0.66819000  1
  C  C79  1  0.60100000  0.79530000  0.75000000  1
  C  C80  1  0.59180000  0.90080000  0.47880000  1
  C  C81  1  0.59180000  0.90080000  0.02120000  1
  C  C82  1  0.54040000  0.10910000  0.94993000  1
  C  C83  1  0.54040000  0.10910000  0.55007000  1
  C  C84  1  0.52320000  0.01330000  0.41295000  1
  C  C85  1  0.52320000  0.01330000  0.08705000  1
  C  C86  1  0.47680000  0.98670000  0.91295000  1
  C  C87  1  0.47680000  0.98670000  0.58705000  1
  C  C88  1  0.45960000  0.89090000  0.44993000  1
  C  C89  1  0.45960000  0.89090000  0.05007000  1
  C  C90  1  0.40820000  0.09920000  0.97880000  1
  C  C91  1  0.40820000  0.09920000  0.52120000  1
  C  C92  1  0.39900000  0.20470000  0.25000000  1
  C  C93  1  0.39850000  0.20860000  0.33181000  1
  C  C94  1  0.39850000  0.20860000  0.16819000  1
  C  C95  1  0.38420000  0.15870000  0.48313000  1
  C  C96  1  0.38420000  0.15870000  0.01687000  1
  C  C97  1  0.34570000  0.16890000  0.28963000  1
  C  C98  1  0.34570000  0.16890000  0.21037000  1
  C  C99  1  0.34320000  0.97100000  0.93974000  1
  C  C100  1  0.34320000  0.97100000  0.56026000  1
  C  C101  1  0.30660000  0.02980000  0.97308000  1
  C  C102  1  0.30660000  0.02980000  0.52692000  1
  C  C103  1  0.26400000  0.39280000  0.43543000  1
  C  C104  1  0.26400000  0.39280000  0.06457000  1
  C  C105  1  0.25170000  0.59620000  0.78767000  1
  C  C106  1  0.25170000  0.59620000  0.71233000  1
  C  C107  1  0.24830000  0.09620000  0.28767000  1
  C  C108  1  0.24830000  0.09620000  0.21233000  1
  C  C109  1  0.23600000  0.89280000  0.93543000  1
  C  C110  1  0.23600000  0.89280000  0.56457000  1
  C  C111  1  0.19340000  0.52980000  0.47308000  1
  C  C112  1  0.19340000  0.52980000  0.02692000  1
  C  C113  1  0.15680000  0.47100000  0.43974000  1
  C  C114  1  0.15680000  0.47100000  0.06026000  1
  C  C115  1  0.15430000  0.66890000  0.78963000  1
  C  C116  1  0.15430000  0.66890000  0.71037000  1
  C  C117  1  0.11580000  0.65870000  0.98313000  1
  C  C118  1  0.11580000  0.65870000  0.51687000  1
  C  C119  1  0.10150000  0.70860000  0.83181000  1
  C  C120  1  0.10150000  0.70860000  0.66819000  1
  C  C121  1  0.10100000  0.70470000  0.75000000  1
  C  C122  1  0.09180000  0.59920000  0.47880000  1
  C  C123  1  0.09180000  0.59920000  0.02120000  1
  C  C124  1  0.04040000  0.39090000  0.94993000  1
  C  C125  1  0.04040000  0.39090000  0.55007000  1
  C  C126  1  0.02320000  0.48670000  0.41295000  1
  C  C127  1  0.02320000  0.48670000  0.08705000  1
  N  N128  1  0.92640000  0.55500000  0.41684000  1
  N  N129  1  0.92640000  0.55500000  0.08316000  1
  N  N130  1  0.80250000  0.94060000  0.75000000  1
  N  N131  1  0.69750000  0.44060000  0.25000000  1
  N  N132  1  0.57360000  0.05500000  0.91684000  1
  N  N133  1  0.57360000  0.05500000  0.58316000  1
  N  N134  1  0.42640000  0.94500000  0.41684000  1
  N  N135  1  0.42640000  0.94500000  0.08316000  1
  N  N136  1  0.30250000  0.55940000  0.75000000  1
  N  N137  1  0.19750000  0.05940000  0.25000000  1
  N  N138  1  0.07360000  0.44500000  0.91684000  1
  N  N139  1  0.07360000  0.44500000  0.58316000  1
  O  O140  1  0.99730000  0.29060000  0.47380000  1
  O  O141  1  0.99730000  0.29060000  0.02620000  1
  O  O142  1  0.99330000  0.76550000  0.83022000  1
  O  O143  1  0.99330000  0.76550000  0.66978000  1
  O  O144  1  0.88650000  0.11290000  0.46067000  1
  O  O145  1  0.88650000  0.11290000  0.03933000  1
  O  O146  1  0.83750000  0.31620000  0.36861000  1
  O  O147  1  0.83750000  0.31620000  0.13139000  1
  O  O148  1  0.76570000  0.66170000  0.90524000  1
  O  O149  1  0.76570000  0.66170000  0.59476000  1
  O  O150  1  0.75170000  0.34880000  0.46207000  1
  O  O151  1  0.75170000  0.34880000  0.03793000  1
  O  O152  1  0.74830000  0.84880000  0.96207000  1
  O  O153  1  0.74830000  0.84880000  0.53793000  1
  O  O154  1  0.73430000  0.16170000  0.40524000  1
  O  O155  1  0.73430000  0.16170000  0.09476000  1
  O  O156  1  0.66250000  0.81620000  0.86861000  1
  O  O157  1  0.66250000  0.81620000  0.63139000  1
  O  O158  1  0.61350000  0.61290000  0.96067000  1
  O  O159  1  0.61350000  0.61290000  0.53933000  1
  O  O160  1  0.50670000  0.26550000  0.33022000  1
  O  O161  1  0.50670000  0.26550000  0.16978000  1
  O  O162  1  0.50270000  0.79060000  0.97380000  1
  O  O163  1  0.50270000  0.79060000  0.52620000  1
  O  O164  1  0.49730000  0.20940000  0.47380000  1
  O  O165  1  0.49730000  0.20940000  0.02620000  1
  O  O166  1  0.49330000  0.73450000  0.83022000  1
  O  O167  1  0.49330000  0.73450000  0.66978000  1
  O  O168  1  0.38650000  0.38710000  0.46067000  1
  O  O169  1  0.38650000  0.38710000  0.03933000  1
  O  O170  1  0.33750000  0.18380000  0.36861000  1
  O  O171  1  0.33750000  0.18380000  0.13139000  1
  O  O172  1  0.26570000  0.83830000  0.90524000  1
  O  O173  1  0.26570000  0.83830000  0.59476000  1
  O  O174  1  0.25170000  0.15120000  0.46207000  1
  O  O175  1  0.25170000  0.15120000  0.03793000  1
  O  O176  1  0.24830000  0.65120000  0.96207000  1
  O  O177  1  0.24830000  0.65120000  0.53793000  1
  O  O178  1  0.23430000  0.33830000  0.40524000  1
  O  O179  1  0.23430000  0.33830000  0.09476000  1
  O  O180  1  0.16250000  0.68380000  0.86861000  1
  O  O181  1  0.16250000  0.68380000  0.63139000  1
  O  O182  1  0.11350000  0.88710000  0.96067000  1
  O  O183  1  0.11350000  0.88710000  0.53933000  1
  O  O184  1  0.00670000  0.23450000  0.33022000  1
  O  O185  1  0.00670000  0.23450000  0.16978000  1
  O  O186  1  0.00270000  0.70940000  0.97380000  1
  O  O187  1  0.00270000  0.70940000  0.52620000  1
