# generated using pymatgen
data_Mn3CrH21C15(N2O)6
_symmetry_space_group_name_H-M   'P 1'
_cell_length_a   8.11400000
_cell_length_b   13.54160000
_cell_length_c   13.54160000
_cell_angle_alpha   120.00000000
_cell_angle_beta   90.00000000
_cell_angle_gamma   90.00000000
_symmetry_Int_Tables_number   1
_chemical_formula_structural   Mn3CrH21C15(N2O)6
_chemical_formula_sum   'Mn6 Cr2 H42 C30 N24 O12'
_cell_volume   1288.56282396
_cell_formula_units_Z   2
loop_
 _symmetry_equiv_pos_site_id
 _symmetry_equiv_pos_as_xyz
  1  'x, y, z'
loop_
 _atom_site_type_symbol
 _atom_site_label
 _atom_site_symmetry_multiplicity
 _atom_site_fract_x
 _atom_site_fract_y
 _atom_site_fract_z
 _atom_site_occupancy
  Mn  Mn0  1  0.45575000  0.96388000  0.66858000  1
  Mn  Mn1  1  0.45575000  0.70470000  0.03612000  1
  Mn  Mn2  1  0.95575000  0.66858000  0.70470000  1
  Mn  Mn3  1  0.45575000  0.33142000  0.29530000  1
  Mn  Mn4  1  0.95575000  0.29530000  0.96388000  1
  Mn  Mn5  1  0.95575000  0.03612000  0.33142000  1
  Cr  Cr6  1  0.07650000  0.66666667  0.33333333  1
  Cr  Cr7  1  0.57650000  0.33333333  0.66666667  1
  H  H8  1  0.69660000  0.98370000  0.54500000  1
  H  H9  1  0.93890000  0.95330000  0.60640000  1
  H  H10  1  0.55890000  0.91690000  0.19610000  1
  H  H11  1  0.84250000  0.91420000  0.68140000  1
  H  H12  1  0.29190000  0.86760000  0.28410000  1
  H  H13  1  0.70210000  0.86600000  0.51980000  1
  H  H14  1  0.55450000  0.85040000  0.25410000  1
  H  H15  1  0.55890000  0.80390000  0.72080000  1
  H  H16  1  0.84250000  0.76720000  0.08580000  1
  H  H17  1  0.55450000  0.74590000  0.59630000  1
  H  H18  1  0.05890000  0.72080000  0.91690000  1
  H  H19  1  0.29190000  0.71590000  0.58350000  1
  H  H20  1  0.34250000  0.68140000  0.76720000  1
  H  H21  1  0.70210000  0.65380000  0.13400000  1
  H  H22  1  0.93890000  0.65310000  0.04670000  1
  H  H23  1  0.43890000  0.60640000  0.65310000  1
  H  H24  1  0.05450000  0.59630000  0.85040000  1
  H  H25  1  0.79190000  0.58350000  0.86760000  1
  H  H26  1  0.69660000  0.56130000  0.01630000  1
  H  H27  1  0.19660000  0.54500000  0.56130000  1
  H  H28  1  0.20210000  0.51980000  0.65380000  1
  H  H29  1  0.70210000  0.48020000  0.34620000  1
  H  H30  1  0.69660000  0.45500000  0.43870000  1
  H  H31  1  0.19660000  0.43870000  0.98370000  1
  H  H32  1  0.29190000  0.41650000  0.13240000  1
  H  H33  1  0.55450000  0.40370000  0.14960000  1
  H  H34  1  0.93890000  0.39360000  0.34690000  1
  H  H35  1  0.43890000  0.34690000  0.95330000  1
  H  H36  1  0.20210000  0.34620000  0.86600000  1
  H  H37  1  0.84250000  0.31860000  0.23280000  1
  H  H38  1  0.79190000  0.28410000  0.41650000  1
  H  H39  1  0.55890000  0.27920000  0.08310000  1
  H  H40  1  0.05450000  0.25410000  0.40370000  1
  H  H41  1  0.34250000  0.23280000  0.91420000  1
  H  H42  1  0.05890000  0.19610000  0.27920000  1
  H  H43  1  0.05450000  0.14960000  0.74590000  1
  H  H44  1  0.20210000  0.13400000  0.48020000  1
  H  H45  1  0.79190000  0.13240000  0.71590000  1
  H  H46  1  0.34250000  0.08580000  0.31860000  1
  H  H47  1  0.05890000  0.08310000  0.80390000  1
  H  H48  1  0.43890000  0.04670000  0.39360000  1
  H  H49  1  0.19660000  0.01630000  0.45500000  1
  C  C50  1  0.83950000  0.96540000  0.65080000  1
  C  C51  1  0.33540000  0.91330000  0.25230000  1
  C  C52  1  0.21920000  0.89290000  0.15400000  1
  C  C53  1  0.21920000  0.84600000  0.73890000  1
  C  C54  1  0.22680000  0.79900000  0.44620000  1
  C  C55  1  0.93930000  0.78950000  0.32040000  1
  C  C56  1  0.33540000  0.74770000  0.66100000  1
  C  C57  1  0.71920000  0.73890000  0.89290000  1
  C  C58  1  0.83950000  0.68540000  0.03460000  1
  C  C59  1  0.93930000  0.67960000  0.46910000  1
  C  C60  1  0.83540000  0.66100000  0.91330000  1
  C  C61  1  0.33950000  0.65080000  0.68540000  1
  C  C62  1  0.22680000  0.64720000  0.20100000  1
  C  C63  1  0.22680000  0.55380000  0.35280000  1
  C  C64  1  0.93930000  0.53090000  0.21050000  1
  C  C65  1  0.43930000  0.46910000  0.78950000  1
  C  C66  1  0.72680000  0.44620000  0.64720000  1
  C  C67  1  0.72680000  0.35280000  0.79900000  1
  C  C68  1  0.83950000  0.34920000  0.31460000  1
  C  C69  1  0.33540000  0.33900000  0.08670000  1
  C  C70  1  0.43930000  0.32040000  0.53090000  1
  C  C71  1  0.33950000  0.31460000  0.96540000  1
  C  C72  1  0.21920000  0.26110000  0.10710000  1
  C  C73  1  0.83540000  0.25230000  0.33900000  1
  C  C74  1  0.43930000  0.21050000  0.67960000  1
  C  C75  1  0.72680000  0.20100000  0.55380000  1
  C  C76  1  0.71920000  0.15400000  0.26110000  1
  C  C77  1  0.71920000  0.10710000  0.84600000  1
  C  C78  1  0.83540000  0.08670000  0.74770000  1
  C  C79  1  0.33950000  0.03460000  0.34920000  1
  N  N80  1  0.69530000  0.93900000  0.57660000  1
  N  N81  1  0.30980000  0.86940000  0.50680000  1
  N  N82  1  0.88840000  0.86730000  0.31850000  1
  N  N83  1  0.49950000  0.86650000  0.20620000  1
  N  N84  1  0.49950000  0.79380000  0.66030000  1
  N  N85  1  0.88840000  0.68150000  0.54880000  1
  N  N86  1  0.99950000  0.66030000  0.86650000  1
  N  N87  1  0.69530000  0.63760000  0.06100000  1
  N  N88  1  0.30980000  0.63740000  0.13060000  1
  N  N89  1  0.19530000  0.57660000  0.63760000  1
  N  N90  1  0.38840000  0.54880000  0.86730000  1
  N  N91  1  0.80980000  0.50680000  0.63740000  1
  N  N92  1  0.30980000  0.49320000  0.36260000  1
  N  N93  1  0.88840000  0.45120000  0.13270000  1
  N  N94  1  0.69530000  0.42340000  0.36240000  1
  N  N95  1  0.80980000  0.36260000  0.86940000  1
  N  N96  1  0.19530000  0.36240000  0.93900000  1
  N  N97  1  0.49950000  0.33970000  0.13350000  1
  N  N98  1  0.38840000  0.31850000  0.45120000  1
  N  N99  1  0.99950000  0.20620000  0.33970000  1
  N  N100  1  0.99950000  0.13350000  0.79380000  1
  N  N101  1  0.38840000  0.13270000  0.68150000  1
  N  N102  1  0.80980000  0.13060000  0.49320000  1
  N  N103  1  0.19530000  0.06100000  0.42340000  1
  O  O104  1  0.09250000  0.94990000  0.17630000  1
  O  O105  1  0.25570000  0.94590000  0.76210000  1
  O  O106  1  0.09250000  0.82370000  0.77360000  1
  O  O107  1  0.25570000  0.81620000  0.05410000  1
  O  O108  1  0.59250000  0.77360000  0.94990000  1
  O  O109  1  0.75570000  0.76210000  0.81620000  1
  O  O110  1  0.25570000  0.23790000  0.18380000  1
  O  O111  1  0.09250000  0.22640000  0.05010000  1
  O  O112  1  0.75570000  0.18380000  0.94590000  1
  O  O113  1  0.59250000  0.17630000  0.22640000  1
  O  O114  1  0.75570000  0.05410000  0.23790000  1
  O  O115  1  0.59250000  0.05010000  0.82370000  1
