# generated using pymatgen
data_NdPH11C7NO5
_symmetry_space_group_name_H-M   'P 1'
_cell_length_a   5.58710000
_cell_length_b   13.42400000
_cell_length_c   21.15700000
_cell_angle_alpha   90.00000000
_cell_angle_beta   96.14800000
_cell_angle_gamma   90.00000000
_symmetry_Int_Tables_number   1
_chemical_formula_structural   NdPH11C7NO5
_chemical_formula_sum   'Nd4 P4 H44 C28 N4 O20'
_cell_volume   1577.67465910
_cell_formula_units_Z   4
loop_
 _symmetry_equiv_pos_site_id
 _symmetry_equiv_pos_as_xyz
  1  'x, y, z'
loop_
 _atom_site_type_symbol
 _atom_site_label
 _atom_site_symmetry_multiplicity
 _atom_site_fract_x
 _atom_site_fract_y
 _atom_site_fract_z
 _atom_site_occupancy
  Nd  Nd0  1  0.37146000  0.63445000  0.52849000  1
  Nd  Nd1  1  0.37146000  0.86555000  0.02849000  1
  Nd  Nd2  1  0.62854000  0.13445000  0.97151000  1
  Nd  Nd3  1  0.62854000  0.36555000  0.47151000  1
  P  P4  1  0.08780000  0.52307000  0.41320000  1
  P  P5  1  0.08780000  0.97693000  0.91320000  1
  P  P6  1  0.91220000  0.02307000  0.08680000  1
  P  P7  1  0.91220000  0.47693000  0.58680000  1
  H  H8  1  0.00760000  0.74520000  0.67750000  1
  H  H9  1  0.00760000  0.75480000  0.17750000  1
  H  H10  1  0.03350000  0.09910000  0.37130000  1
  H  H11  1  0.03350000  0.40090000  0.87130000  1
  H  H12  1  0.08070000  0.19830000  0.16130000  1
  H  H13  1  0.08070000  0.30170000  0.66130000  1
  H  H14  1  0.11060000  0.00320000  0.71360000  1
  H  H15  1  0.11060000  0.49680000  0.21360000  1
  H  H16  1  0.12350000  0.72380000  0.29570000  1
  H  H17  1  0.12350000  0.77620000  0.79570000  1
  H  H18  1  0.23530000  0.02550000  0.82010000  1
  H  H19  1  0.23530000  0.47450000  0.32010000  1
  H  H20  1  0.23620000  0.19670000  0.74560000  1
  H  H21  1  0.23620000  0.30330000  0.24560000  1
  H  H22  1  0.23990000  0.60060000  0.21940000  1
  H  H23  1  0.23990000  0.89940000  0.71940000  1
  H  H24  1  0.24310000  0.07100000  0.33090000  1
  H  H25  1  0.24310000  0.42900000  0.83090000  1
  H  H26  1  0.32570000  0.58180000  0.33850000  1
  H  H27  1  0.32570000  0.91820000  0.83850000  1
  H  H28  1  0.37050000  0.20050000  0.25080000  1
  H  H29  1  0.37050000  0.29950000  0.75080000  1
  H  H30  1  0.62950000  0.70050000  0.24920000  1
  H  H31  1  0.62950000  0.79950000  0.74920000  1
  H  H32  1  0.67430000  0.08180000  0.16150000  1
  H  H33  1  0.67430000  0.41820000  0.66150000  1
  H  H34  1  0.75690000  0.57100000  0.16910000  1
  H  H35  1  0.75690000  0.92900000  0.66910000  1
  H  H36  1  0.76010000  0.10060000  0.28060000  1
  H  H37  1  0.76010000  0.39940000  0.78060000  1
  H  H38  1  0.76380000  0.69670000  0.75440000  1
  H  H39  1  0.76380000  0.80330000  0.25440000  1
  H  H40  1  0.76470000  0.52550000  0.67990000  1
  H  H41  1  0.76470000  0.97450000  0.17990000  1
  H  H42  1  0.87650000  0.22380000  0.20430000  1
  H  H43  1  0.87650000  0.27620000  0.70430000  1
  H  H44  1  0.88940000  0.50320000  0.78640000  1
  H  H45  1  0.88940000  0.99680000  0.28640000  1
  H  H46  1  0.91930000  0.69830000  0.33870000  1
  H  H47  1  0.91930000  0.80170000  0.83870000  1
  H  H48  1  0.96650000  0.59910000  0.12870000  1
  H  H49  1  0.96650000  0.90090000  0.62870000  1
  H  H50  1  0.99240000  0.24520000  0.82250000  1
  H  H51  1  0.99240000  0.25480000  0.32250000  1
  C  C52  1  0.02830000  0.18910000  0.20320000  1
  C  C53  1  0.02830000  0.31090000  0.70320000  1
  C  C54  1  0.08680000  0.56720000  0.22100000  1
  C  C55  1  0.08680000  0.93280000  0.72100000  1
  C  C56  1  0.09390000  0.10800000  0.33040000  1
  C  C57  1  0.09390000  0.39200000  0.83040000  1
  C  C58  1  0.14400000  0.21880000  0.32040000  1
  C  C59  1  0.14400000  0.28120000  0.82040000  1
  C  C60  1  0.18510000  0.53890000  0.33470000  1
  C  C61  1  0.18510000  0.96110000  0.83470000  1
  C  C62  1  0.21680000  0.23280000  0.25370000  1
  C  C63  1  0.21680000  0.26720000  0.75370000  1
  C  C64  1  0.32600000  0.23910000  0.87170000  1
  C  C65  1  0.32600000  0.26090000  0.37170000  1
  C  C66  1  0.67400000  0.73910000  0.62830000  1
  C  C67  1  0.67400000  0.76090000  0.12830000  1
  C  C68  1  0.78320000  0.73280000  0.24630000  1
  C  C69  1  0.78320000  0.76720000  0.74630000  1
  C  C70  1  0.81490000  0.03890000  0.16530000  1
  C  C71  1  0.81490000  0.46110000  0.66530000  1
  C  C72  1  0.85600000  0.71880000  0.17960000  1
  C  C73  1  0.85600000  0.78120000  0.67960000  1
  C  C74  1  0.90610000  0.60800000  0.16960000  1
  C  C75  1  0.90610000  0.89200000  0.66960000  1
  C  C76  1  0.91320000  0.06720000  0.27900000  1
  C  C77  1  0.91320000  0.43280000  0.77900000  1
  C  C78  1  0.97170000  0.68910000  0.29680000  1
  C  C79  1  0.97170000  0.81090000  0.79680000  1
  N  N80  1  0.00580000  0.58120000  0.28490000  1
  N  N81  1  0.00580000  0.91880000  0.78490000  1
  N  N82  1  0.99420000  0.08120000  0.21510000  1
  N  N83  1  0.99420000  0.41880000  0.71510000  1
  O  O84  1  0.03680000  0.62330000  0.44260000  1
  O  O85  1  0.03680000  0.87670000  0.94260000  1
  O  O86  1  0.12270000  0.54760000  0.59190000  1
  O  O87  1  0.12270000  0.95240000  0.09190000  1
  O  O88  1  0.29920000  0.24440000  0.42940000  1
  O  O89  1  0.29920000  0.25560000  0.92940000  1
  O  O90  1  0.31420000  0.01740000  0.95352000  1
  O  O91  1  0.31420000  0.48260000  0.45352000  1
  O  O92  1  0.49480000  0.18490000  0.85790000  1
  O  O93  1  0.49480000  0.31510000  0.35790000  1
  O  O94  1  0.50520000  0.68490000  0.64210000  1
  O  O95  1  0.50520000  0.81510000  0.14210000  1
  O  O96  1  0.68580000  0.51740000  0.54648000  1
  O  O97  1  0.68580000  0.98260000  0.04648000  1
  O  O98  1  0.70080000  0.74440000  0.07060000  1
  O  O99  1  0.70080000  0.75560000  0.57060000  1
  O  O100  1  0.87730000  0.04760000  0.90810000  1
  O  O101  1  0.87730000  0.45240000  0.40810000  1
  O  O102  1  0.96320000  0.12330000  0.05740000  1
  O  O103  1  0.96320000  0.37670000  0.55740000  1
