# generated using pymatgen
data_Na2Cd3H24(C2O)24
_symmetry_space_group_name_H-M   'P 1'
_cell_length_a   17.24446001
_cell_length_b   17.24446001
_cell_length_c   18.05209755
_cell_angle_alpha   110.73792957
_cell_angle_beta   110.73792957
_cell_angle_gamma   104.98963114
_symmetry_Int_Tables_number   1
_chemical_formula_structural   Na2Cd3H24(C2O)24
_chemical_formula_sum   'Na4 Cd6 H48 C96 O48'
_cell_volume   4218.30501840
_cell_formula_units_Z   2
loop_
 _symmetry_equiv_pos_site_id
 _symmetry_equiv_pos_as_xyz
  1  'x, y, z'
loop_
 _atom_site_type_symbol
 _atom_site_label
 _atom_site_symmetry_multiplicity
 _atom_site_fract_x
 _atom_site_fract_y
 _atom_site_fract_z
 _atom_site_occupancy
  C  C0  1  0.57150000  0.85670000  0.99320000  1
  C  C1  1  0.78510000  0.81270000  0.98340000  1
  C  C2  1  0.14590000  0.10450000  0.94780000  1
  C  C3  1  0.07210000  0.03190000  0.94380000  1
  C  C4  1  0.11660000  0.46220000  0.94100000  1
  C  C5  1  0.18300000  0.52140000  0.94000000  1
  C  C6  1  0.04560000  0.94400000  0.88960000  1
  C  C7  1  0.16790000  0.07690000  0.88680000  1
  C  C8  1  0.03720000  0.43380000  0.87940000  1
  C  C9  1  0.61050000  0.12210000  0.87920000  1
  C  C10  1  0.15340000  0.55840000  0.87480000  1
  C  C11  1  0.84450000  0.09790000  0.87300000  1
  C  C12  1  0.13770000  0.98450000  0.82620000  1
  C  C13  1  0.07540000  0.91640000  0.82580000  1
  C  C14  1  0.06540000  0.53180000  0.81980000  1
  C  C15  1  0.00100000  0.46340000  0.81820000  1
  C  C16  1  0.88030000  0.07330000  0.80980000  1
  C  C17  1  0.50300000  0.07740000  0.80960000  1
  C  C18  1  0.44430000  0.00930000  0.80640000  1
  C  C19  1  0.93910000  0.13850000  0.80360000  1
  C  C20  1  0.04260000  0.81680000  0.76320000  1
  C  C21  1  0.47900000  0.11900000  0.75700000  1
  C  C22  1  0.85100000  0.97660000  0.75300000  1
  C  C23  1  0.54220000  0.56580000  0.75020000  1
  C  C24  1  0.04200000  0.56560000  0.74980000  1
  C  C25  1  0.34800000  0.97360000  0.74700000  1
  C  C26  1  0.97200000  0.11200000  0.74300000  1
  C  C27  1  0.52940000  0.80360000  0.73680000  1
  C  C28  1  0.38550000  0.08490000  0.69640000  1
  C  C29  1  0.88790000  0.95290000  0.69360000  1
  C  C30  1  0.94340000  0.01780000  0.69040000  1
  C  C31  1  0.32050000  0.01350000  0.69020000  1
  C  C32  1  0.43280000  0.39520000  0.68180000  1
  C  C33  1  0.49560000  0.46200000  0.68020000  1
  C  C34  1  0.49960000  0.84060000  0.67420000  1
  C  C35  1  0.56150000  0.90830000  0.67380000  1
  C  C36  1  0.22150000  0.97490000  0.62700000  1
  C  C37  1  0.52860000  0.43360000  0.62520000  1
  C  C38  1  0.98130000  0.99290000  0.62080000  1
  C  C39  1  0.40780000  0.30440000  0.62060000  1
  C  C40  1  0.53110000  0.94010000  0.61320000  1
  C  C41  1  0.40600000  0.80440000  0.61040000  1
  C  C42  1  0.49300000  0.33140000  0.56000000  1
  C  C43  1  0.42560000  0.27120000  0.55900000  1
  C  C44  1  0.37830000  0.83810000  0.55620000  1
  C  C45  1  0.44810000  0.90670000  0.55220000  1
  C  C46  1  0.05170000  0.57930000  0.51660000  1
  C  C47  1  0.82830000  0.61350000  0.50680000  1
  C  C48  1  0.38650000  0.17170000  0.49320000  1
  C  C49  1  0.42070000  0.94830000  0.48340000  1
  C  C50  1  0.09330000  0.55190000  0.44780000  1
  C  C51  1  0.16190000  0.62170000  0.44380000  1
  C  C52  1  0.72880000  0.57440000  0.44100000  1
  C  C53  1  0.66860000  0.50700000  0.44000000  1
  C  C54  1  0.19560000  0.59400000  0.38960000  1
  C  C55  1  0.05990000  0.46890000  0.38680000  1
  C  C56  1  0.69560000  0.59220000  0.37940000  1
  C  C57  1  0.00710000  0.01870000  0.37920000  1
  C  C58  1  0.56640000  0.47140000  0.37480000  1
  C  C59  1  0.02510000  0.77850000  0.37300000  1
  C  C60  1  0.09170000  0.43850000  0.32620000  1
  C  C61  1  0.15940000  0.50040000  0.32580000  1
  C  C62  1  0.53800000  0.50440000  0.31980000  1
  C  C63  1  0.60480000  0.56720000  0.31820000  1
  C  C64  1  0.98650000  0.67950000  0.30980000  1
  C  C65  1  0.98220000  0.05660000  0.30960000  1
  C  C66  1  0.04710000  0.11210000  0.30640000  1
  C  C67  1  0.91510000  0.61450000  0.30360000  1
  C  C68  1  0.19640000  0.47060000  0.26320000  1
  C  C69  1  0.88800000  0.02800000  0.25700000  1
  C  C70  1  0.02640000  0.65200000  0.25300000  1
  C  C71  1  0.43440000  0.95800000  0.25020000  1
  C  C72  1  0.43420000  0.45780000  0.24980000  1
  C  C73  1  0.02340000  0.14900000  0.24700000  1
  C  C74  1  0.88100000  0.52100000  0.24300000  1
  C  C75  1  0.18320000  0.95740000  0.23680000  1
  C  C76  1  0.86150000  0.06090000  0.19640000  1
  C  C77  1  0.99070000  0.55570000  0.19360000  1
  C  C78  1  0.92260000  0.49700000  0.19040000  1
  C  C79  1  0.92670000  0.11970000  0.19020000  1
  C  C80  1  0.53660000  0.99900000  0.18180000  1
  C  C81  1  0.46820000  0.93460000  0.18020000  1
  C  C82  1  0.08360000  0.92460000  0.17420000  1
  C  C83  1  0.01550000  0.86230000  0.17380000  1
  C  C84  1  0.90210000  0.15550000  0.12700000  1
  C  C85  1  0.44160000  0.84660000  0.12520000  1
  C  C86  1  0.87790000  0.38950000  0.12080000  1
  C  C87  1  0.56620000  0.96280000  0.12060000  1
  C  C88  1  0.92310000  0.83210000  0.11320000  1
  C  C89  1  0.05600000  0.95440000  0.11040000  1
  C  C90  1  0.47860000  0.81700000  0.06000000  1
  C  C91  1  0.53780000  0.88340000  0.05900000  1
  C  C92  1  0.96810000  0.92790000  0.05620000  1
  C  C93  1  0.89550000  0.85410000  0.05220000  1
  C  C94  1  0.18730000  0.21490000  0.01660000  1
  C  C95  1  0.14330000  0.42850000  0.00680000  1
  Cd  Cd96  1  0.79529000  0.20471000  1.00000000  1
  Cd  Cd97  1  0.60903000  0.74691000  0.85896000  1
  Cd  Cd98  1  0.00007000  0.63795000  0.64104000  1
  Cd  Cd99  1  0.04529000  0.95471000  0.50000000  1
  Cd  Cd100  1  0.36205000  0.99993000  0.35896000  1
  Cd  Cd101  1  0.25309000  0.39097000  0.14104000  1
  H  H102  1  0.04530000  0.04870000  0.97960000  1
  H  H103  1  0.24500000  0.53940000  0.97760000  1
  H  H104  1  0.00630000  0.89930000  0.89360000  1
  H  H105  1  0.20680000  0.12140000  0.88220000  1
  H  H106  1  0.19840000  0.60080000  0.87380000  1
  H  H107  1  0.99360000  0.38320000  0.87280000  1
  H  H108  1  0.46540000  0.98420000  0.84280000  1
  H  H109  1  0.95720000  0.20080000  0.84020000  1
  H  H110  1  0.16010000  0.96910000  0.78580000  1
  H  H111  1  0.93790000  0.43870000  0.77900000  1
  H  H112  1  0.52360000  0.16760000  0.76220000  1
  H  H113  1  0.80990000  0.93150000  0.75500000  1
  H  H114  1  0.30490000  0.92650000  0.74500000  1
  H  H115  1  0.01140000  0.15540000  0.73780000  1
  H  H116  1  0.40890000  0.40970000  0.72100000  1
  H  H117  1  0.62430000  0.93330000  0.71420000  1
  H  H118  1  0.36700000  0.11060000  0.65980000  1
  H  H119  1  0.87260000  0.89140000  0.65720000  1
  H  H120  1  0.37080000  0.26040000  0.62720000  1
  H  H121  1  0.57460000  0.47700000  0.62620000  1
  H  H122  1  0.57460000  0.98920000  0.61780000  1
  H  H123  1  0.36270000  0.75570000  0.60640000  1
  H  H124  1  0.51740000  0.31180000  0.52240000  1
  H  H125  1  0.31570000  0.81910000  0.52040000  1
  H  H126  1  0.18090000  0.68430000  0.47960000  1
  H  H127  1  0.68820000  0.48260000  0.47760000  1
  H  H128  1  0.24430000  0.63730000  0.39360000  1
  H  H129  1  0.01080000  0.42540000  0.38220000  1
  H  H130  1  0.52300000  0.42540000  0.37380000  1
  H  H131  1  0.73960000  0.62920000  0.37280000  1
  H  H132  1  0.10860000  0.12740000  0.34280000  1
  H  H133  1  0.88940000  0.63300000  0.34020000  1
  H  H134  1  0.06670000  0.37570000  0.28580000  1
  H  H135  1  0.59030000  0.59110000  0.27900000  1
  H  H136  1  0.84460000  0.98860000  0.26220000  1
  H  H137  1  0.07350000  0.69510000  0.25500000  1
  H  H138  1  0.06850000  0.19010000  0.24500000  1
  H  H139  1  0.83240000  0.47640000  0.23780000  1
  H  H140  1  0.56130000  0.06210000  0.22100000  1
  H  H141  1  0.03090000  0.83990000  0.21420000  1
  H  H142  1  0.79920000  0.04280000  0.15980000  1
  H  H143  1  0.01580000  0.53460000  0.15720000  1
  H  H144  1  0.61680000  0.00640000  0.12720000  1
  H  H145  1  0.39920000  0.80160000  0.12620000  1
  H  H146  1  0.87860000  0.79320000  0.11780000  1
  H  H147  1  0.10070000  0.99370000  0.10640000  1
  H  H148  1  0.46060000  0.75500000  0.02240000  1
  H  H149  1  0.95130000  0.95470000  0.02040000  1
  Na  Na150  1  0.70863000  0.97769000  0.93466000  1
  Na  Na151  1  0.02397000  0.79303000  0.56534000  1
  Na  Na152  1  0.20697000  0.97603000  0.43466000  1
  Na  Na153  1  0.02231000  0.29137000  0.06534000  1
  O  O154  1  0.63230000  0.92030000  0.99720000  1
  O  O155  1  0.73050000  0.75050000  0.97440000  1
  O  O156  1  0.77150000  0.86510000  0.94740000  1
  O  O157  1  0.54390000  0.78310000  0.94280000  1
  O  O158  1  0.88090000  0.18930000  0.92900000  1
  O  O159  1  0.63240000  0.07380000  0.92100000  1
  O  O160  1  0.66520000  0.18480000  0.88520000  1
  O  O161  1  0.78790000  0.03970000  0.87380000  1
  O  O162  1  0.51310000  0.58810000  0.79920000  1
  O  O163  1  0.61530000  0.84070000  0.79460000  1
  O  O164  1  0.99210000  0.75590000  0.77260000  1
  O  O165  1  0.60690000  0.62010000  0.75040000  1
  O  O166  1  0.10650000  0.61970000  0.74960000  1
  O  O167  1  0.46950000  0.73330000  0.72740000  1
  O  O168  1  0.07070000  0.79610000  0.70540000  1
  O  O169  1  0.96390000  0.53890000  0.70080000  1
  O  O170  1  0.16410000  0.91590000  0.62620000  1
  O  O171  1  0.03000000  0.04960000  0.61480000  1
  O  O172  1  0.96140000  0.90280000  0.57900000  1
  O  O173  1  0.20190000  0.01030000  0.57100000  1
  O  O174  1  0.85110000  0.59030000  0.55720000  1
  O  O175  1  0.07410000  0.66770000  0.55260000  1
  O  O176  1  0.00610000  0.52610000  0.52560000  1
  O  O177  1  0.88510000  0.67310000  0.50280000  1
  O  O178  1  0.32690000  0.11490000  0.49720000  1
  O  O179  1  0.47390000  0.99390000  0.47440000  1
  O  O180  1  0.33230000  0.92590000  0.44740000  1
  O  O181  1  0.40970000  0.14890000  0.44280000  1
  O  O182  1  0.98970000  0.79810000  0.42900000  1
  O  O183  1  0.09720000  0.03860000  0.42100000  1
  O  O184  1  0.95040000  0.97000000  0.38520000  1
  O  O185  1  0.08410000  0.83590000  0.37380000  1
  O  O186  1  0.46110000  0.03610000  0.29920000  1
  O  O187  1  0.20390000  0.92930000  0.29460000  1
  O  O188  1  0.26670000  0.53050000  0.27260000  1
  O  O189  1  0.38030000  0.89350000  0.25040000  1
  O  O190  1  0.37990000  0.39310000  0.24960000  1
  O  O191  1  0.24410000  0.00790000  0.22740000  1
  O  O192  1  0.15930000  0.38470000  0.20540000  1
  O  O193  1  0.41190000  0.48690000  0.20080000  1
  O  O194  1  0.96030000  0.21210000  0.12620000  1
  O  O195  1  0.81520000  0.33480000  0.11480000  1
  O  O196  1  0.92620000  0.36760000  0.07900000  1
  O  O197  1  0.81070000  0.11910000  0.07100000  1
  O  O198  1  0.21690000  0.45610000  0.05720000  1
  O  O199  1  0.13490000  0.22850000  0.05260000  1
  O  O200  1  0.24950000  0.26950000  0.02560000  1
  O  O201  1  0.07970000  0.36770000  0.00280000  1
