# generated using pymatgen
data_CdH7C12(NO2)2
_symmetry_space_group_name_H-M   'P 1'
_cell_length_a   7.62970000
_cell_length_b   15.09220000
_cell_length_c   26.80790000
_cell_angle_alpha   90.00000000
_cell_angle_beta   90.00000000
_cell_angle_gamma   90.83800000
_symmetry_Int_Tables_number   1
_chemical_formula_structural   CdH7C12(NO2)2
_chemical_formula_sum   'Cd8 H56 C96 N16 O32'
_cell_volume   3086.57159771
_cell_formula_units_Z   8
loop_
 _symmetry_equiv_pos_site_id
 _symmetry_equiv_pos_as_xyz
  1  'x, y, z'
loop_
 _atom_site_type_symbol
 _atom_site_label
 _atom_site_symmetry_multiplicity
 _atom_site_fract_x
 _atom_site_fract_y
 _atom_site_fract_z
 _atom_site_occupancy
  Cd  Cd0  1  0.75831000  0.32936000  0.90969000  1
  Cd  Cd1  1  0.75831000  0.82936000  0.59031000  1
  Cd  Cd2  1  0.61680000  0.75513000  0.83526000  1
  Cd  Cd3  1  0.61680000  0.25513000  0.66474000  1
  Cd  Cd4  1  0.38320000  0.74487000  0.33526000  1
  Cd  Cd5  1  0.38320000  0.24487000  0.16474000  1
  Cd  Cd6  1  0.24169000  0.17064000  0.40969000  1
  Cd  Cd7  1  0.24169000  0.67064000  0.09031000  1
  H  H8  1  0.99820000  0.61780000  0.44800000  1
  H  H9  1  0.99820000  0.11780000  0.05200000  1
  H  H10  1  0.94540000  0.72430000  0.26690000  1
  H  H11  1  0.94540000  0.22430000  0.23310000  1
  H  H12  1  0.91140000  0.00130000  0.92010000  1
  H  H13  1  0.91140000  0.50130000  0.57990000  1
  H  H14  1  0.90360000  0.74820000  0.48230000  1
  H  H15  1  0.90360000  0.24820000  0.01770000  1
  H  H16  1  0.84490000  0.22550000  0.40050000  1
  H  H17  1  0.84490000  0.72550000  0.09950000  1
  H  H18  1  0.82850000  0.27900000  0.78930000  1
  H  H19  1  0.82850000  0.77900000  0.71070000  1
  H  H20  1  0.81010000  0.13310000  0.89140000  1
  H  H21  1  0.81010000  0.63310000  0.60860000  1
  H  H22  1  0.79060000  0.76440000  0.35300000  1
  H  H23  1  0.79060000  0.26440000  0.14700000  1
  H  H24  1  0.66666667  0.04260000  0.40680000  1
  H  H25  1  0.66666667  0.54260000  0.09320000  1
  H  H26  1  0.59090000  0.76280000  0.95600000  1
  H  H27  1  0.59090000  0.26280000  0.54400000  1
  H  H28  1  0.56190000  0.35990000  0.47890000  1
  H  H29  1  0.56190000  0.85990000  0.02110000  1
  H  H30  1  0.55170000  0.55300000  0.88140000  1
  H  H31  1  0.55170000  0.05300000  0.61860000  1
  H  H32  1  0.54720000  0.45070000  0.42180000  1
  H  H33  1  0.54720000  0.95070000  0.07820000  1
  H  H34  1  0.50910000  0.55320000  0.35980000  1
  H  H35  1  0.50910000  0.05320000  0.14020000  1
  H  H36  1  0.49090000  0.94680000  0.85980000  1
  H  H37  1  0.49090000  0.44680000  0.64020000  1
  H  H38  1  0.45280000  0.04930000  0.92180000  1
  H  H39  1  0.45280000  0.54930000  0.57820000  1
  H  H40  1  0.44830000  0.94700000  0.38140000  1
  H  H41  1  0.44830000  0.44700000  0.11860000  1
  H  H42  1  0.43810000  0.14010000  0.97890000  1
  H  H43  1  0.43810000  0.64010000  0.52110000  1
  H  H44  1  0.40910000  0.73720000  0.45600000  1
  H  H45  1  0.40910000  0.23720000  0.04400000  1
  H  H46  1  0.33333333  0.45740000  0.90680000  1
  H  H47  1  0.33333333  0.95740000  0.59320000  1
  H  H48  1  0.20940000  0.73560000  0.85300000  1
  H  H49  1  0.20940000  0.23560000  0.64700000  1
  H  H50  1  0.18990000  0.36690000  0.39140000  1
  H  H51  1  0.18990000  0.86690000  0.10860000  1
  H  H52  1  0.17150000  0.22100000  0.28930000  1
  H  H53  1  0.17150000  0.72100000  0.21070000  1
  H  H54  1  0.15510000  0.27450000  0.90050000  1
  H  H55  1  0.15510000  0.77450000  0.59950000  1
  H  H56  1  0.09640000  0.75180000  0.98230000  1
  H  H57  1  0.09640000  0.25180000  0.51770000  1
  H  H58  1  0.08860000  0.49870000  0.42010000  1
  H  H59  1  0.08860000  0.99870000  0.07990000  1
  H  H60  1  0.05460000  0.77570000  0.76690000  1
  H  H61  1  0.05460000  0.27570000  0.73310000  1
  H  H62  1  0.00180000  0.88220000  0.94800000  1
  H  H63  1  0.00180000  0.38220000  0.55200000  1
  C  C64  1  0.98730000  0.47270000  0.90591000  1
  C  C65  1  0.98730000  0.97270000  0.59409000  1
  C  C66  1  0.96950000  0.04350000  0.99011000  1
  C  C67  1  0.96950000  0.54350000  0.50989000  1
  C  C68  1  0.96310000  0.61920000  0.48120000  1
  C  C69  1  0.96310000  0.11920000  0.01880000  1
  C  C70  1  0.94320000  0.27900000  0.80106000  1
  C  C71  1  0.94320000  0.77900000  0.69894000  1
  C  C72  1  0.92130000  0.22210000  0.26706000  1
  C  C73  1  0.92130000  0.72210000  0.23294000  1
  C  C74  1  0.91190000  0.66090000  0.87159000  1
  C  C75  1  0.91190000  0.16090000  0.62841000  1
  C  C76  1  0.91050000  0.05040000  0.94107000  1
  C  C77  1  0.91050000  0.55040000  0.55893000  1
  C  C78  1  0.90560000  0.87650000  0.37650000  1
  C  C79  1  0.90560000  0.37650000  0.12350000  1
  C  C80  1  0.90420000  0.19750000  0.99801000  1
  C  C81  1  0.90420000  0.69750000  0.50199000  1
  C  C82  1  0.86920000  0.96060000  0.39355000  1
  C  C83  1  0.86920000  0.46060000  0.10645000  1
  C  C84  1  0.86420000  0.22270000  0.36631000  1
  C  C85  1  0.86420000  0.72270000  0.13369000  1
  C  C86  1  0.85110000  0.13030000  0.92404000  1
  C  C87  1  0.85110000  0.63030000  0.57596000  1
  C  C88  1  0.76600000  0.82170000  0.36335000  1
  C  C89  1  0.76600000  0.32170000  0.13665000  1
  C  C90  1  0.74900000  0.22000000  0.28356000  1
  C  C91  1  0.74900000  0.72000000  0.21644000  1
  C  C92  1  0.71960000  0.22180000  0.33493000  1
  C  C93  1  0.71960000  0.72180000  0.16507000  1
  C  C94  1  0.69480000  0.98630000  0.39545000  1
  C  C95  1  0.69480000  0.48630000  0.10455000  1
  C  C96  1  0.60510000  0.72100000  0.25499000  1
  C  C97  1  0.60510000  0.22100000  0.24501000  1
  C  C98  1  0.56620000  0.82170000  0.94905000  1
  C  C99  1  0.56620000  0.32170000  0.55095000  1
  C  C100  1  0.56400000  0.92840000  0.38048000  1
  C  C101  1  0.56400000  0.42840000  0.11952000  1
  C  C102  1  0.54750000  0.87970000  0.98849000  1
  C  C103  1  0.54750000  0.37970000  0.51151000  1
  C  C104  1  0.54350000  0.21260000  0.35977000  1
  C  C105  1  0.54350000  0.71260000  0.14023000  1
  C  C106  1  0.51620000  0.50830000  0.42990000  1
  C  C107  1  0.51620000  0.00830000  0.07010000  1
  C  C108  1  0.50710000  0.96770000  0.97936000  1
  C  C109  1  0.50710000  0.46770000  0.52064000  1
  C  C110  1  0.50690000  0.92940000  0.89274000  1
  C  C111  1  0.50690000  0.42940000  0.60726000  1
  C  C112  1  0.49310000  0.57060000  0.39274000  1
  C  C113  1  0.49310000  0.07060000  0.10726000  1
  C  C114  1  0.49290000  0.53230000  0.47936000  1
  C  C115  1  0.49290000  0.03230000  0.02064000  1
  C  C116  1  0.48380000  0.99170000  0.92990000  1
  C  C117  1  0.48380000  0.49170000  0.57010000  1
  C  C118  1  0.45650000  0.28740000  0.85977000  1
  C  C119  1  0.45650000  0.78740000  0.64023000  1
  C  C120  1  0.45250000  0.62030000  0.48849000  1
  C  C121  1  0.45250000  0.12030000  0.01151000  1
  C  C122  1  0.43600000  0.57160000  0.88048000  1
  C  C123  1  0.43600000  0.07160000  0.61952000  1
  C  C124  1  0.43380000  0.67830000  0.44905000  1
  C  C125  1  0.43380000  0.17830000  0.05095000  1
  C  C126  1  0.39490000  0.77900000  0.75499000  1
  C  C127  1  0.39490000  0.27900000  0.74501000  1
  C  C128  1  0.30520000  0.51370000  0.89545000  1
  C  C129  1  0.30520000  0.01370000  0.60455000  1
  C  C130  1  0.28040000  0.27820000  0.83493000  1
  C  C131  1  0.28040000  0.77820000  0.66507000  1
  C  C132  1  0.25100000  0.28000000  0.78356000  1
  C  C133  1  0.25100000  0.78000000  0.71644000  1
  C  C134  1  0.23400000  0.67830000  0.86335000  1
  C  C135  1  0.23400000  0.17830000  0.63665000  1
  C  C136  1  0.14890000  0.36970000  0.42404000  1
  C  C137  1  0.14890000  0.86970000  0.07596000  1
  C  C138  1  0.13580000  0.27730000  0.86631000  1
  C  C139  1  0.13580000  0.77730000  0.63369000  1
  C  C140  1  0.13080000  0.53940000  0.89355000  1
  C  C141  1  0.13080000  0.03940000  0.60645000  1
  C  C142  1  0.09580000  0.30250000  0.49801000  1
  C  C143  1  0.09580000  0.80250000  0.00199000  1
  C  C144  1  0.09440000  0.62350000  0.87650000  1
  C  C145  1  0.09440000  0.12350000  0.62350000  1
  C  C146  1  0.08950000  0.44960000  0.44107000  1
  C  C147  1  0.08950000  0.94960000  0.05893000  1
  C  C148  1  0.08810000  0.83910000  0.37159000  1
  C  C149  1  0.08810000  0.33910000  0.12841000  1
  C  C150  1  0.07870000  0.27790000  0.76706000  1
  C  C151  1  0.07870000  0.77790000  0.73294000  1
  C  C152  1  0.05680000  0.22100000  0.30106000  1
  C  C153  1  0.05680000  0.72100000  0.19894000  1
  C  C154  1  0.03690000  0.88080000  0.98120000  1
  C  C155  1  0.03690000  0.38080000  0.51880000  1
  C  C156  1  0.03050000  0.45650000  0.49011000  1
  C  C157  1  0.03050000  0.95650000  0.00989000  1
  C  C158  1  0.01270000  0.02730000  0.40591000  1
  C  C159  1  0.01270000  0.52730000  0.09409000  1
  N  N160  1  0.97030000  0.28020000  0.85004000  1
  N  N161  1  0.97030000  0.78020000  0.64996000  1
  N  N162  1  0.84860000  0.20320000  0.95112000  1
  N  N163  1  0.84860000  0.70320000  0.54888000  1
  N  N164  1  0.59770000  0.84600000  0.36453000  1
  N  N165  1  0.59770000  0.34600000  0.13547000  1
  N  N166  1  0.55070000  0.84600000  0.90154000  1
  N  N167  1  0.55070000  0.34600000  0.59846000  1
  N  N168  1  0.44930000  0.65400000  0.40154000  1
  N  N169  1  0.44930000  0.15400000  0.09846000  1
  N  N170  1  0.40230000  0.65400000  0.86453000  1
  N  N171  1  0.40230000  0.15400000  0.63547000  1
  N  N172  1  0.15140000  0.29680000  0.45112000  1
  N  N173  1  0.15140000  0.79680000  0.04888000  1
  N  N174  1  0.02970000  0.21980000  0.35004000  1
  N  N175  1  0.02970000  0.71980000  0.14996000  1
  O  O176  1  0.98420000  0.08419000  0.43916000  1
  O  O177  1  0.98420000  0.58419000  0.06084000  1
  O  O178  1  0.86240000  0.67840000  0.82819000  1
  O  O179  1  0.86240000  0.17840000  0.67181000  1
  O  O180  1  0.84930000  0.47450000  0.88087000  1
  O  O181  1  0.84930000  0.97450000  0.61913000  1
  O  O182  1  0.82510000  0.67590000  0.90916000  1
  O  O183  1  0.82510000  0.17590000  0.59084000  1
  O  O184  1  0.62020000  0.67100000  0.29175000  1
  O  O185  1  0.62020000  0.17100000  0.20825000  1
  O  O186  1  0.56340000  0.34160000  0.84256000  1
  O  O187  1  0.56340000  0.84160000  0.65744000  1
  O  O188  1  0.51620000  0.72540000  0.75106000  1
  O  O189  1  0.51620000  0.22540000  0.74894000  1
  O  O190  1  0.51570000  0.25450000  0.39867000  1
  O  O191  1  0.51570000  0.75450000  0.10133000  1
  O  O192  1  0.48430000  0.24550000  0.89867000  1
  O  O193  1  0.48430000  0.74550000  0.60133000  1
  O  O194  1  0.48380000  0.77460000  0.25106000  1
  O  O195  1  0.48380000  0.27460000  0.24894000  1
  O  O196  1  0.43660000  0.15840000  0.34256000  1
  O  O197  1  0.43660000  0.65840000  0.15744000  1
  O  O198  1  0.37980000  0.82900000  0.79175000  1
  O  O199  1  0.37980000  0.32900000  0.70825000  1
  O  O200  1  0.17490000  0.82410000  0.40916000  1
  O  O201  1  0.17490000  0.32410000  0.09084000  1
  O  O202  1  0.15070000  0.02550000  0.38087000  1
  O  O203  1  0.15070000  0.52550000  0.11913000  1
  O  O204  1  0.13760000  0.82160000  0.32819000  1
  O  O205  1  0.13760000  0.32160000  0.17181000  1
  O  O206  1  0.01580000  0.41581000  0.93916000  1
  O  O207  1  0.01580000  0.91581000  0.56084000  1
