# generated using pymatgen
data_CdH2(C5O4)2
_symmetry_space_group_name_H-M   'P 1'
_cell_length_a   11.82430000
_cell_length_b   12.90120000
_cell_length_c   14.58160000
_cell_angle_alpha   90.00000000
_cell_angle_beta   90.00000000
_cell_angle_gamma   90.00000000
_symmetry_Int_Tables_number   1
_chemical_formula_structural   CdH2(C5O4)2
_chemical_formula_sum   'Cd4 H8 C40 O32'
_cell_volume   2224.38894681
_cell_formula_units_Z   4
loop_
 _symmetry_equiv_pos_site_id
 _symmetry_equiv_pos_as_xyz
  1  'x, y, z'
loop_
 _atom_site_type_symbol
 _atom_site_label
 _atom_site_symmetry_multiplicity
 _atom_site_fract_x
 _atom_site_fract_y
 _atom_site_fract_z
 _atom_site_occupancy
  Cd  Cd0  1  0.02373000  0.00211000  0.24506000  1
  Cd  Cd1  1  0.52373000  0.49789000  0.74506000  1
  Cd  Cd2  1  0.02373000  0.50211000  0.25495000  1
  Cd  Cd3  1  0.52373000  0.99789000  0.75495000  1
  H  H4  1  0.77900000  0.06290000  0.49270000  1
  H  H5  1  0.28100000  0.07230000  0.01190000  1
  H  H6  1  0.78100000  0.42770000  0.51190000  1
  H  H7  1  0.27900000  0.43710000  0.99270000  1
  H  H8  1  0.77900000  0.56290000  0.00730000  1
  H  H9  1  0.28100000  0.57230000  0.48810000  1
  H  H10  1  0.78100000  0.92770000  0.98810000  1
  H  H11  1  0.27900000  0.93710000  0.50730000  1
  C  C12  1  0.64417000  0.11581000  0.62831000  1
  C  C13  1  0.42354000  0.13049000  0.88631000  1
  C  C14  1  0.91087000  0.13262000  0.36762000  1
  C  C15  1  0.77700000  0.13738000  0.49896000  1
  C  C16  1  0.12502000  0.14228000  0.12301000  1
  C  C17  1  0.27810000  0.15083000  0.00822000  1
  C  C18  1  0.70828000  0.18536000  0.56356000  1
  C  C19  1  0.84497000  0.19233000  0.43815000  1
  C  C20  1  0.34840000  0.19942000  0.94464000  1
  C  C21  1  0.20585000  0.20615000  0.06609000  1
  C  C22  1  0.70585000  0.29385000  0.56609000  1
  C  C23  1  0.84840000  0.30058000  0.44464000  1
  C  C24  1  0.34497000  0.30767000  0.93815000  1
  C  C25  1  0.20828000  0.31464000  0.06356000  1
  C  C26  1  0.77810000  0.34917000  0.50822000  1
  C  C27  1  0.62502000  0.35772000  0.62301000  1
  C  C28  1  0.27700000  0.36262000  0.99896000  1
  C  C29  1  0.41087000  0.36738000  0.86762000  1
  C  C30  1  0.92354000  0.36951000  0.38631000  1
  C  C31  1  0.14417000  0.38419000  0.12831000  1
  C  C32  1  0.64417000  0.61581000  0.87169000  1
  C  C33  1  0.42354000  0.63049000  0.61369000  1
  C  C34  1  0.91087000  0.63262000  0.13238000  1
  C  C35  1  0.77700000  0.63738000  0.00104000  1
  C  C36  1  0.12502000  0.64228000  0.37699000  1
  C  C37  1  0.27810000  0.65083000  0.49178000  1
  C  C38  1  0.70828000  0.68536000  0.93644000  1
  C  C39  1  0.84497000  0.69233000  0.06185000  1
  C  C40  1  0.34840000  0.69942000  0.55536000  1
  C  C41  1  0.20585000  0.70615000  0.43391000  1
  C  C42  1  0.70585000  0.79385000  0.93391000  1
  C  C43  1  0.84840000  0.80058000  0.05536000  1
  C  C44  1  0.34497000  0.80767000  0.56185000  1
  C  C45  1  0.20828000  0.81464000  0.43644000  1
  C  C46  1  0.77810000  0.84917000  0.99178000  1
  C  C47  1  0.62502000  0.85772000  0.87699000  1
  C  C48  1  0.27700000  0.86262000  0.50104000  1
  C  C49  1  0.41087000  0.86738000  0.63238000  1
  C  C50  1  0.92354000  0.86951000  0.11369000  1
  C  C51  1  0.14417000  0.88419000  0.37169000  1
  O  O52  1  0.64730000  0.02054000  0.61477000  1
  O  O53  1  0.89528000  0.03655000  0.36245000  1
  O  O54  1  0.16975000  0.08693000  0.18534000  1
  O  O55  1  0.37887000  0.08996000  0.81700000  1
  O  O56  1  0.52128000  0.11338000  0.91225000  1
  O  O57  1  0.02362000  0.14152000  0.10304000  1
  O  O58  1  0.59262000  0.15539000  0.69532000  1
  O  O59  1  0.97549000  0.17720000  0.31488000  1
  O  O60  1  0.47549000  0.32280000  0.81488000  1
  O  O61  1  0.09262000  0.34461000  0.19532000  1
  O  O62  1  0.52362000  0.35848000  0.60304000  1
  O  O63  1  0.02128000  0.38662000  0.41225000  1
  O  O64  1  0.87887000  0.41004000  0.31700000  1
  O  O65  1  0.66975000  0.41307000  0.68534000  1
  O  O66  1  0.39528000  0.46345000  0.86245000  1
  O  O67  1  0.14730000  0.47946000  0.11477000  1
  O  O68  1  0.64730000  0.52054000  0.88523000  1
  O  O69  1  0.89528000  0.53655000  0.13755000  1
  O  O70  1  0.16975000  0.58693000  0.31466000  1
  O  O71  1  0.37887000  0.58996000  0.68300000  1
  O  O72  1  0.52128000  0.61338000  0.58775000  1
  O  O73  1  0.02362000  0.64152000  0.39696000  1
  O  O74  1  0.59262000  0.65539000  0.80468000  1
  O  O75  1  0.97549000  0.67720000  0.18512000  1
  O  O76  1  0.47549000  0.82280000  0.68512000  1
  O  O77  1  0.09262000  0.84461000  0.30468000  1
  O  O78  1  0.52362000  0.85848000  0.89696000  1
  O  O79  1  0.02128000  0.88662000  0.08775000  1
  O  O80  1  0.87887000  0.91004000  0.18300000  1
  O  O81  1  0.66975000  0.91307000  0.81466000  1
  O  O82  1  0.39528000  0.96345000  0.63755000  1
  O  O83  1  0.14730000  0.97946000  0.38523000  1
