# generated using pymatgen
data_Sm6H20C54S9O37
_symmetry_space_group_name_H-M   'P 1'
_cell_length_a   11.35300000
_cell_length_b   17.52770000
_cell_length_c   50.64100000
_cell_angle_alpha   90.00000000
_cell_angle_beta   90.00000000
_cell_angle_gamma   90.00000000
_symmetry_Int_Tables_number   1
_chemical_formula_structural   Sm6H20C54S9O37
_chemical_formula_sum   'Sm24 H80 C216 S36 O148'
_cell_volume   10077.15276296
_cell_formula_units_Z   4
loop_
 _symmetry_equiv_pos_site_id
 _symmetry_equiv_pos_as_xyz
  1  'x, y, z'
loop_
 _atom_site_type_symbol
 _atom_site_label
 _atom_site_symmetry_multiplicity
 _atom_site_fract_x
 _atom_site_fract_y
 _atom_site_fract_z
 _atom_site_occupancy
  Sm  Sm0  1  0.30639000  0.03242000  0.01122000  1
  Sm  Sm1  1  0.86465000  0.52552000  0.06289000  1
  Sm  Sm2  1  0.41063000  0.02228000  0.10602000  1
  Sm  Sm3  1  0.86422000  0.52706000  0.15578000  1
  Sm  Sm4  1  0.23288000  0.02754000  0.17665000  1
  Sm  Sm5  1  0.68530000  0.52368000  0.22684000  1
  Sm  Sm6  1  0.18530000  0.02368000  0.27316000  1
  Sm  Sm7  1  0.73288000  0.52754000  0.32335000  1
  Sm  Sm8  1  0.36422000  0.02706000  0.34422000  1
  Sm  Sm9  1  0.91063000  0.52228000  0.39398000  1
  Sm  Sm10  1  0.36465000  0.02552000  0.43711000  1
  Sm  Sm11  1  0.80639000  0.53242000  0.48878000  1
  Sm  Sm12  1  0.19361000  0.03242000  0.51122000  1
  Sm  Sm13  1  0.63535000  0.52552000  0.56289000  1
  Sm  Sm14  1  0.08937000  0.02228000  0.60602000  1
  Sm  Sm15  1  0.63578000  0.52706000  0.65578000  1
  Sm  Sm16  1  0.26712000  0.02754000  0.67665000  1
  Sm  Sm17  1  0.81470000  0.52368000  0.72684000  1
  Sm  Sm18  1  0.31470000  0.02368000  0.77316000  1
  Sm  Sm19  1  0.76712000  0.52754000  0.82335000  1
  Sm  Sm20  1  0.13578000  0.02706000  0.84422000  1
  Sm  Sm21  1  0.58937000  0.52228000  0.89398000  1
  Sm  Sm22  1  0.13535000  0.02552000  0.93711000  1
  Sm  Sm23  1  0.69361000  0.53242000  0.98878000  1
  H  H24  1  0.50910000  0.37140000  0.01110000  1
  H  H25  1  0.39900000  0.25210000  0.01640000  1
  H  H26  1  0.10370000  0.84980000  0.03820000  1
  H  H27  1  0.01520000  0.72460000  0.04720000  1
  H  H28  1  0.09280000  0.34200000  0.06750000  1
  H  H29  1  0.19200000  0.21890000  0.07120000  1
  H  H30  1  0.64270000  0.72540000  0.09350000  1
  H  H31  1  0.55010000  0.85050000  0.09530000  1
  H  H32  1  0.70500000  0.49200000  0.10890000  1
  H  H33  1  0.72400000  0.57000000  0.11180000  1
  H  H34  1  0.54970000  0.20610000  0.12030000  1
  H  H35  1  0.65220000  0.32920000  0.12520000  1
  H  H36  1  0.95290000  0.74030000  0.15000000  1
  H  H37  1  0.05730000  0.86080000  0.15550000  1
  H  H38  1  0.03300000  0.35940000  0.17520000  1
  H  H39  1  0.13930000  0.23970000  0.18050000  1
  H  H40  1  0.43930000  0.82560000  0.20590000  1
  H  H41  1  0.53990000  0.70310000  0.21120000  1
  H  H42  1  0.51920000  0.33333333  0.23430000  1
  H  H43  1  0.42040000  0.21020000  0.23860000  1
  H  H44  1  0.92040000  0.71020000  0.26140000  1
  H  H45  1  0.01920000  0.83330000  0.26570000  1
  H  H46  1  0.03990000  0.20310000  0.28880000  1
  H  H47  1  0.93930000  0.32560000  0.29410000  1
  H  H48  1  0.63930000  0.73970000  0.31950000  1
  H  H49  1  0.53300000  0.85940000  0.32480000  1
  H  H50  1  0.55730000  0.36080000  0.34450000  1
  H  H51  1  0.45290000  0.24030000  0.35000000  1
  H  H52  1  0.15220000  0.82920000  0.37480000  1
  H  H53  1  0.04970000  0.70610000  0.37970000  1
  H  H54  1  0.22400000  0.07000000  0.38820000  1
  H  H55  1  0.20500000  0.99200000  0.39110000  1
  H  H56  1  0.05010000  0.35050000  0.40470000  1
  H  H57  1  0.14270000  0.22540000  0.40650000  1
  H  H58  1  0.69200000  0.71890000  0.42880000  1
  H  H59  1  0.59280000  0.84200000  0.43250000  1
  H  H60  1  0.51520000  0.22460000  0.45280000  1
  H  H61  1  0.60370000  0.34980000  0.46180000  1
  H  H62  1  0.89900000  0.75210000  0.48360000  1
  H  H63  1  0.00910000  0.87140000  0.48890000  1
  H  H64  1  0.99090000  0.37140000  0.51110000  1
  H  H65  1  0.10100000  0.25210000  0.51640000  1
  H  H66  1  0.39630000  0.84980000  0.53820000  1
  H  H67  1  0.48480000  0.72460000  0.54720000  1
  H  H68  1  0.40720000  0.34200000  0.56750000  1
  H  H69  1  0.30800000  0.21890000  0.57120000  1
  H  H70  1  0.85730000  0.72540000  0.59350000  1
  H  H71  1  0.94990000  0.85050000  0.59530000  1
  H  H72  1  0.79500000  0.49200000  0.60890000  1
  H  H73  1  0.77600000  0.57000000  0.61180000  1
  H  H74  1  0.95030000  0.20610000  0.62030000  1
  H  H75  1  0.84780000  0.32920000  0.62520000  1
  H  H76  1  0.54710000  0.74030000  0.65000000  1
  H  H77  1  0.44270000  0.86080000  0.65550000  1
  H  H78  1  0.46700000  0.35940000  0.67520000  1
  H  H79  1  0.36070000  0.23970000  0.68050000  1
  H  H80  1  0.06070000  0.82560000  0.70590000  1
  H  H81  1  0.96010000  0.70310000  0.71120000  1
  H  H82  1  0.98080000  0.33333333  0.73430000  1
  H  H83  1  0.07960000  0.21020000  0.73860000  1
  H  H84  1  0.57960000  0.71020000  0.76140000  1
  H  H85  1  0.48080000  0.83330000  0.76570000  1
  H  H86  1  0.46010000  0.20310000  0.78880000  1
  H  H87  1  0.56070000  0.32560000  0.79410000  1
  H  H88  1  0.86070000  0.73970000  0.81950000  1
  H  H89  1  0.96700000  0.85940000  0.82480000  1
  H  H90  1  0.94270000  0.36080000  0.84450000  1
  H  H91  1  0.04710000  0.24030000  0.85000000  1
  H  H92  1  0.34780000  0.82920000  0.87480000  1
  H  H93  1  0.45030000  0.70610000  0.87970000  1
  H  H94  1  0.27600000  0.07000000  0.88820000  1
  H  H95  1  0.29500000  0.99200000  0.89110000  1
  H  H96  1  0.44990000  0.35050000  0.90470000  1
  H  H97  1  0.35730000  0.22540000  0.90650000  1
  H  H98  1  0.80800000  0.71890000  0.92880000  1
  H  H99  1  0.90720000  0.84200000  0.93250000  1
  H  H100  1  0.98480000  0.22460000  0.95280000  1
  H  H101  1  0.89630000  0.34980000  0.96180000  1
  H  H102  1  0.60100000  0.75210000  0.98360000  1
  H  H103  1  0.49090000  0.87140000  0.98890000  1
  C  C104  1  0.03290000  0.84900000  0.00160000  1
  C  C105  1  0.88730000  0.64920000  0.00803000  1
  C  C106  1  0.92640000  0.42180000  0.00982000  1
  C  C107  1  0.95000000  0.72320000  0.01014000  1
  C  C108  1  0.51880000  0.33840000  0.02531000  1
  C  C109  1  0.05840000  0.82300000  0.02609000  1
  C  C110  1  0.45560000  0.26910000  0.02835000  1
  C  C111  1  0.00840000  0.75040000  0.03118000  1
  C  C112  1  0.59490000  0.35090000  0.04541000  1
  C  C113  1  0.64330000  0.64030000  0.04672000  1
  C  C114  1  0.67830000  0.41550000  0.04932000  1
  C  C115  1  0.48590000  0.23070000  0.05012000  1
  C  C116  1  0.43230000  0.91080000  0.05167000  1
  C  C117  1  0.58750000  0.71170000  0.05611000  1
  C  C118  1  0.49020000  0.83650000  0.05825000  1
  C  C119  1  0.44080000  0.15540000  0.05838000  1
  C  C120  1  0.60130000  0.74670000  0.07947000  1
  C  C121  1  0.54700000  0.81870000  0.08061000  1
  C  C122  1  0.09010000  0.31180000  0.08258000  1
  C  C123  1  0.14700000  0.24070000  0.08458000  1
  C  C124  1  0.03120000  0.33210000  0.10469000  1
  C  C125  1  0.98220000  0.64840000  0.10666000  1
  C  C126  1  0.12760000  0.20790000  0.10868000  1
  C  C127  1  0.96930000  0.40550000  0.10977000  1
  C  C128  1  0.02890000  0.72410000  0.11444000  1
  C  C129  1  0.21360000  0.91250000  0.11717000  1
  C  C130  1  0.17670000  0.13590000  0.11928000  1
  C  C131  1  0.13500000  0.84630000  0.11988000  1
  C  C132  1  0.54570000  0.23620000  0.13540000  1
  C  C133  1  0.00450000  0.75980000  0.13749000  1
  C  C134  1  0.60440000  0.30760000  0.13815000  1
  C  C135  1  0.06490000  0.82970000  0.14070000  1
  C  C136  1  0.48360000  0.21720000  0.15713000  1
  C  C137  1  0.45830000  0.90940000  0.15892000  1
  C  C138  1  0.41520000  0.14700000  0.16185000  1
  C  C139  1  0.58160000  0.34050000  0.16225000  1
  C  C140  1  0.50620000  0.83530000  0.16887000  1
  C  C141  1  0.67920000  0.64410000  0.16990000  1
  C  C142  1  0.63370000  0.41280000  0.17244000  1
  C  C143  1  0.60710000  0.71300000  0.17407000  1
  C  C144  1  0.02740000  0.32860000  0.19006000  1
  C  C145  1  0.48600000  0.80340000  0.19291000  1
  C  C146  1  0.08930000  0.25980000  0.19325000  1
  C  C147  1  0.54410000  0.73270000  0.19598000  1
  C  C148  1  0.95820000  0.34510000  0.21136000  1
  C  C149  1  0.92100000  0.63310000  0.21263000  1
  C  C150  1  0.87830000  0.41090000  0.21438000  1
  C  C151  1  0.06850000  0.22570000  0.21684000  1
  C  C152  1  0.11570000  0.90590000  0.22168000  1
  C  C153  1  0.96900000  0.70510000  0.22292000  1
  C  C154  1  0.11540000  0.14970000  0.22519000  1
  C  C155  1  0.06220000  0.83080000  0.22697000  1
  C  C156  1  0.95930000  0.73450000  0.24762000  1
  C  C157  1  0.01520000  0.80600000  0.24993000  1
  C  C158  1  0.51520000  0.30600000  0.25007000  1
  C  C159  1  0.45930000  0.23450000  0.25238000  1
  C  C160  1  0.56220000  0.33080000  0.27303000  1
  C  C161  1  0.61540000  0.64970000  0.27481000  1
  C  C162  1  0.46900000  0.20510000  0.27708000  1
  C  C163  1  0.61570000  0.40590000  0.27832000  1
  C  C164  1  0.56850000  0.72570000  0.28316000  1
  C  C165  1  0.37830000  0.91090000  0.28562000  1
  C  C166  1  0.42100000  0.13310000  0.28737000  1
  C  C167  1  0.45820000  0.84510000  0.28864000  1
  C  C168  1  0.04410000  0.23270000  0.30402000  1
  C  C169  1  0.58930000  0.75980000  0.30675000  1
  C  C170  1  0.98600000  0.30340000  0.30709000  1
  C  C171  1  0.52740000  0.82860000  0.30994000  1
  C  C172  1  0.10710000  0.21300000  0.32593000  1
  C  C173  1  0.13370000  0.91280000  0.32756000  1
  C  C174  1  0.17920000  0.14410000  0.33010000  1
  C  C175  1  0.00620000  0.33530000  0.33113000  1
  C  C176  1  0.08160000  0.84050000  0.33775000  1
  C  C177  1  0.91520000  0.64700000  0.33815000  1
  C  C178  1  0.95830000  0.40940000  0.34108000  1
  C  C179  1  0.98360000  0.71720000  0.34287000  1
  C  C180  1  0.56490000  0.32970000  0.35930000  1
  C  C181  1  0.10440000  0.80760000  0.36185000  1
  C  C182  1  0.50450000  0.25980000  0.36251000  1
  C  C183  1  0.04570000  0.73620000  0.36460000  1
  C  C184  1  0.63500000  0.34630000  0.38012000  1
  C  C185  1  0.67670000  0.63590000  0.38072000  1
  C  C186  1  0.71360000  0.41250000  0.38283000  1
  C  C187  1  0.52890000  0.22410000  0.38556000  1
  C  C188  1  0.46930000  0.90550000  0.39023000  1
  C  C189  1  0.62760000  0.70790000  0.39132000  1
  C  C190  1  0.48220000  0.14840000  0.39334000  1
  C  C191  1  0.53120000  0.83210000  0.39531000  1
  C  C192  1  0.64700000  0.74070000  0.41542000  1
  C  C193  1  0.59010000  0.81180000  0.41742000  1
  C  C194  1  0.04700000  0.31870000  0.41939000  1
  C  C195  1  0.10130000  0.24670000  0.42053000  1
  C  C196  1  0.94080000  0.65540000  0.44162000  1
  C  C197  1  0.99020000  0.33650000  0.44175000  1
  C  C198  1  0.08750000  0.21170000  0.44389000  1
  C  C199  1  0.93230000  0.41080000  0.44833000  1
  C  C200  1  0.98590000  0.73070000  0.44988000  1
  C  C201  1  0.17830000  0.91550000  0.45068000  1
  C  C202  1  0.14330000  0.14030000  0.45328000  1
  C  C203  1  0.09490000  0.85090000  0.45459000  1
  C  C204  1  0.50840000  0.25040000  0.46882000  1
  C  C205  1  0.95560000  0.76910000  0.47165000  1
  C  C206  1  0.55840000  0.32300000  0.47391000  1
  C  C207  1  0.01880000  0.83840000  0.47469000  1
  C  C208  1  0.45000000  0.22320000  0.48986000  1
  C  C209  1  0.42640000  0.92180000  0.49018000  1
  C  C210  1  0.38730000  0.14920000  0.49197000  1
  C  C211  1  0.53290000  0.34900000  0.49840000  1
  C  C212  1  0.46710000  0.84900000  0.50160000  1
  C  C213  1  0.61270000  0.64920000  0.50803000  1
  C  C214  1  0.57360000  0.42180000  0.50982000  1
  C  C215  1  0.55000000  0.72320000  0.51014000  1
  C  C216  1  0.98120000  0.33840000  0.52531000  1
  C  C217  1  0.44160000  0.82300000  0.52609000  1
  C  C218  1  0.04440000  0.26910000  0.52835000  1
  C  C219  1  0.49160000  0.75040000  0.53118000  1
  C  C220  1  0.90510000  0.35090000  0.54541000  1
  C  C221  1  0.85670000  0.64030000  0.54672000  1
  C  C222  1  0.82170000  0.41550000  0.54932000  1
  C  C223  1  0.01410000  0.23070000  0.55012000  1
  C  C224  1  0.06770000  0.91080000  0.55167000  1
  C  C225  1  0.91250000  0.71170000  0.55611000  1
  C  C226  1  0.00980000  0.83650000  0.55825000  1
  C  C227  1  0.05920000  0.15540000  0.55838000  1
  C  C228  1  0.89870000  0.74670000  0.57947000  1
  C  C229  1  0.95300000  0.81870000  0.58061000  1
  C  C230  1  0.40990000  0.31180000  0.58258000  1
  C  C231  1  0.35300000  0.24070000  0.58458000  1
  C  C232  1  0.46880000  0.33210000  0.60469000  1
  C  C233  1  0.51780000  0.64840000  0.60666000  1
  C  C234  1  0.37240000  0.20790000  0.60868000  1
  C  C235  1  0.53070000  0.40550000  0.60977000  1
  C  C236  1  0.47110000  0.72410000  0.61444000  1
  C  C237  1  0.28640000  0.91250000  0.61717000  1
  C  C238  1  0.32330000  0.13590000  0.61928000  1
  C  C239  1  0.36500000  0.84630000  0.61988000  1
  C  C240  1  0.95430000  0.23620000  0.63540000  1
  C  C241  1  0.49550000  0.75980000  0.63749000  1
  C  C242  1  0.89560000  0.30760000  0.63815000  1
  C  C243  1  0.43510000  0.82970000  0.64070000  1
  C  C244  1  0.01640000  0.21720000  0.65713000  1
  C  C245  1  0.04170000  0.90940000  0.65892000  1
  C  C246  1  0.08480000  0.14700000  0.66185000  1
  C  C247  1  0.91840000  0.34050000  0.66225000  1
  C  C248  1  0.99380000  0.83530000  0.66887000  1
  C  C249  1  0.82080000  0.64410000  0.66990000  1
  C  C250  1  0.86630000  0.41280000  0.67244000  1
  C  C251  1  0.89290000  0.71300000  0.67407000  1
  C  C252  1  0.47260000  0.32860000  0.69006000  1
  C  C253  1  0.01400000  0.80340000  0.69291000  1
  C  C254  1  0.41070000  0.25980000  0.69325000  1
  C  C255  1  0.95590000  0.73270000  0.69598000  1
  C  C256  1  0.54180000  0.34510000  0.71136000  1
  C  C257  1  0.57900000  0.63310000  0.71263000  1
  C  C258  1  0.62170000  0.41090000  0.71438000  1
  C  C259  1  0.43150000  0.22570000  0.71684000  1
  C  C260  1  0.38430000  0.90590000  0.72168000  1
  C  C261  1  0.53100000  0.70510000  0.72292000  1
  C  C262  1  0.38460000  0.14970000  0.72519000  1
  C  C263  1  0.43780000  0.83080000  0.72697000  1
  C  C264  1  0.54070000  0.73450000  0.74762000  1
  C  C265  1  0.48480000  0.80600000  0.74993000  1
  C  C266  1  0.98480000  0.30600000  0.75007000  1
  C  C267  1  0.04070000  0.23450000  0.75238000  1
  C  C268  1  0.93780000  0.33080000  0.77303000  1
  C  C269  1  0.88460000  0.64970000  0.77481000  1
  C  C270  1  0.03100000  0.20510000  0.77708000  1
  C  C271  1  0.88430000  0.40590000  0.77832000  1
  C  C272  1  0.93150000  0.72570000  0.78316000  1
  C  C273  1  0.12170000  0.91090000  0.78562000  1
  C  C274  1  0.07900000  0.13310000  0.78737000  1
  C  C275  1  0.04180000  0.84510000  0.78864000  1
  C  C276  1  0.45590000  0.23270000  0.80402000  1
  C  C277  1  0.91070000  0.75980000  0.80675000  1
  C  C278  1  0.51400000  0.30340000  0.80709000  1
  C  C279  1  0.97260000  0.82860000  0.80994000  1
  C  C280  1  0.39290000  0.21300000  0.82593000  1
  C  C281  1  0.36630000  0.91280000  0.82756000  1
  C  C282  1  0.32080000  0.14410000  0.83010000  1
  C  C283  1  0.49380000  0.33530000  0.83113000  1
  C  C284  1  0.41840000  0.84050000  0.83775000  1
  C  C285  1  0.58480000  0.64700000  0.83815000  1
  C  C286  1  0.54170000  0.40940000  0.84108000  1
  C  C287  1  0.51640000  0.71720000  0.84287000  1
  C  C288  1  0.93510000  0.32970000  0.85930000  1
  C  C289  1  0.39560000  0.80760000  0.86185000  1
  C  C290  1  0.99550000  0.25980000  0.86251000  1
  C  C291  1  0.45430000  0.73620000  0.86460000  1
  C  C292  1  0.86500000  0.34630000  0.88012000  1
  C  C293  1  0.82330000  0.63590000  0.88072000  1
  C  C294  1  0.78640000  0.41250000  0.88283000  1
  C  C295  1  0.97110000  0.22410000  0.88556000  1
  C  C296  1  0.03070000  0.90550000  0.89023000  1
  C  C297  1  0.87240000  0.70790000  0.89132000  1
  C  C298  1  0.01780000  0.14840000  0.89334000  1
  C  C299  1  0.96880000  0.83210000  0.89531000  1
  C  C300  1  0.85300000  0.74070000  0.91542000  1
  C  C301  1  0.90990000  0.81180000  0.91742000  1
  C  C302  1  0.45300000  0.31870000  0.91939000  1
  C  C303  1  0.39870000  0.24670000  0.92053000  1
  C  C304  1  0.55920000  0.65540000  0.94162000  1
  C  C305  1  0.50980000  0.33650000  0.94175000  1
  C  C306  1  0.41250000  0.21170000  0.94389000  1
  C  C307  1  0.56770000  0.41080000  0.94833000  1
  C  C308  1  0.51410000  0.73070000  0.94988000  1
  C  C309  1  0.32170000  0.91550000  0.95068000  1
  C  C310  1  0.35670000  0.14030000  0.95328000  1
  C  C311  1  0.40510000  0.85090000  0.95459000  1
  C  C312  1  0.99160000  0.25040000  0.96882000  1
  C  C313  1  0.54440000  0.76910000  0.97165000  1
  C  C314  1  0.94160000  0.32300000  0.97391000  1
  C  C315  1  0.48120000  0.83840000  0.97469000  1
  C  C316  1  0.05000000  0.22320000  0.98986000  1
  C  C317  1  0.07360000  0.92180000  0.99018000  1
  C  C318  1  0.11270000  0.14920000  0.99197000  1
  C  C319  1  0.96710000  0.34900000  0.99840000  1
  S  S320  1  0.04955000  0.28513000  0.01568000  1
  S  S321  1  0.50220000  0.76596000  0.03567000  1
  S  S322  1  0.58918000  0.27918000  0.06820000  1
  S  S323  1  0.12543000  0.77758000  0.09585000  1
  S  S324  1  0.04073000  0.26319000  0.12841000  1
  S  S325  1  0.59388000  0.77962000  0.14963000  1
  S  S326  1  0.49213000  0.28514000  0.18129000  1
  S  S327  1  0.04518000  0.76513000  0.20246000  1
  S  S328  1  0.97248000  0.27782000  0.23564000  1
  S  S329  1  0.47248000  0.77782000  0.26436000  1
  S  S330  1  0.54518000  0.26513000  0.29754000  1
  S  S331  1  0.99213000  0.78514000  0.31871000  1
  S  S332  1  0.09388000  0.27962000  0.35037000  1
  S  S333  1  0.54073000  0.76319000  0.37159000  1
  S  S334  1  0.62543000  0.27758000  0.40415000  1
  S  S335  1  0.08918000  0.77918000  0.43180000  1
  S  S336  1  0.00220000  0.26596000  0.46433000  1
  S  S337  1  0.54955000  0.78513000  0.48432000  1
  S  S338  1  0.45045000  0.28513000  0.51568000  1
  S  S339  1  0.99780000  0.76596000  0.53567000  1
  S  S340  1  0.91082000  0.27918000  0.56820000  1
  S  S341  1  0.37457000  0.77758000  0.59585000  1
  S  S342  1  0.45927000  0.26319000  0.62841000  1
  S  S343  1  0.90612000  0.77962000  0.64963000  1
  S  S344  1  0.00787000  0.28514000  0.68129000  1
  S  S345  1  0.45482000  0.76513000  0.70246000  1
  S  S346  1  0.52752000  0.27782000  0.73564000  1
  S  S347  1  0.02752000  0.77782000  0.76436000  1
  S  S348  1  0.95482000  0.26513000  0.79754000  1
  S  S349  1  0.50787000  0.78514000  0.81871000  1
  S  S350  1  0.40612000  0.27962000  0.85037000  1
  S  S351  1  0.95927000  0.76319000  0.87159000  1
  S  S352  1  0.87457000  0.27758000  0.90415000  1
  S  S353  1  0.41082000  0.77918000  0.93180000  1
  S  S354  1  0.49780000  0.26596000  0.96433000  1
  S  S355  1  0.95045000  0.78513000  0.98432000  1
  O  O356  1  0.13270000  0.96310000  0.00501000  1
  O  O357  1  0.16870000  0.13620000  0.01225000  1
  O  O358  1  0.63130000  0.62360000  0.02302000  1
  O  O359  1  0.89720000  0.60440000  0.02742000  1
  O  O360  1  0.69130000  0.46330000  0.03135000  1
  O  O361  1  0.36750000  0.91380000  0.03168000  1
  O  O362  1  0.95570000  0.43770000  0.03325000  1
  O  O363  1  0.38450000  0.11880000  0.04191000  1
  O  O364  1  0.69870000  0.60340000  0.06412000  1
  O  O365  1  0.45710000  0.96510000  0.06664000  1
  O  O366  1  0.73330000  0.41900000  0.07047000  1
  O  O367  1  0.46430000  0.13350000  0.08134000  1
  O  O368  1  0.97200000  0.63080000  0.08293000  1
  O  O369  1  0.97770000  0.45470000  0.09183000  1
  O  O370  1  0.26460000  0.92260000  0.09536000  1
  O  O371  1  0.23390000  0.09500000  0.10283000  1
  O  O372  1  0.75510000  0.52700000  0.10941000  1
  O  O373  1  0.95430000  0.60690000  0.12556000  1
  O  O374  1  0.91950000  0.41410000  0.13149000  1
  O  O375  1  0.47960000  0.92640000  0.13543000  1
  O  O376  1  0.22950000  0.95670000  0.13634000  1
  O  O377  1  0.16650000  0.12170000  0.14318000  1
  O  O378  1  0.41530000  0.09550000  0.14435000  1
  O  O379  1  0.72950000  0.63570000  0.14815000  1
  O  O380  1  0.68800000  0.45310000  0.15616000  1
  O  O381  1  0.40340000  0.94870000  0.17542000  1
  O  O382  1  0.35880000  0.13960000  0.18289000  1
  O  O383  1  0.68790000  0.59620000  0.18805000  1
  O  O384  1  0.93620000  0.61860000  0.18851000  1
  O  O385  1  0.86590000  0.45600000  0.19528000  1
  O  O386  1  0.61510000  0.42770000  0.19624000  1
  O  O387  1  0.16890000  0.91640000  0.20062000  1
  O  O388  1  0.13600000  0.10540000  0.20631000  1
  O  O389  1  0.86480000  0.59210000  0.22878000  1
  O  O390  1  0.82480000  0.41880000  0.23588000  1
  O  O391  1  0.10250000  0.95490000  0.23959000  1
  O  O392  1  0.12560000  0.13520000  0.24867000  1
  O  O393  1  0.62560000  0.63520000  0.25133000  1
  O  O394  1  0.60250000  0.45490000  0.26041000  1
  O  O395  1  0.32480000  0.91880000  0.26412000  1
  O  O396  1  0.36480000  0.09210000  0.27122000  1
  O  O397  1  0.63600000  0.60540000  0.29369000  1
  O  O398  1  0.66890000  0.41640000  0.29938000  1
  O  O399  1  0.11510000  0.92770000  0.30376000  1
  O  O400  1  0.36590000  0.95600000  0.30472000  1
  O  O401  1  0.43620000  0.11860000  0.31149000  1
  O  O402  1  0.18790000  0.09620000  0.31195000  1
  O  O403  1  0.85880000  0.63960000  0.31711000  1
  O  O404  1  0.90340000  0.44870000  0.32458000  1
  O  O405  1  0.18800000  0.95310000  0.34384000  1
  O  O406  1  0.22950000  0.13570000  0.35185000  1
  O  O407  1  0.91530000  0.59550000  0.35565000  1
  O  O408  1  0.66650000  0.62170000  0.35682000  1
  O  O409  1  0.72950000  0.45670000  0.36366000  1
  O  O410  1  0.97960000  0.42640000  0.36457000  1
  O  O411  1  0.41950000  0.91410000  0.36851000  1
  O  O412  1  0.45430000  0.10690000  0.37444000  1
  O  O413  1  0.25510000  0.02700000  0.39059000  1
  O  O414  1  0.73390000  0.59500000  0.39717000  1
  O  O415  1  0.76460000  0.42260000  0.40464000  1
  O  O416  1  0.47770000  0.95470000  0.40817000  1
  O  O417  1  0.47200000  0.13080000  0.41707000  1
  O  O418  1  0.96430000  0.63350000  0.41866000  1
  O  O419  1  0.23330000  0.91900000  0.42953000  1
  O  O420  1  0.95710000  0.46510000  0.43336000  1
  O  O421  1  0.19870000  0.10340000  0.43588000  1
  O  O422  1  0.88450000  0.61880000  0.45809000  1
  O  O423  1  0.45570000  0.93770000  0.46675000  1
  O  O424  1  0.86750000  0.41380000  0.46832000  1
  O  O425  1  0.19130000  0.96330000  0.46865000  1
  O  O426  1  0.39720000  0.10440000  0.47258000  1
  O  O427  1  0.13130000  0.12360000  0.47698000  1
  O  O428  1  0.66870000  0.63620000  0.48775000  1
  O  O429  1  0.63270000  0.46310000  0.49499000  1
  O  O430  1  0.36730000  0.96310000  0.50501000  1
  O  O431  1  0.33130000  0.13620000  0.51225000  1
  O  O432  1  0.86870000  0.62360000  0.52302000  1
  O  O433  1  0.60280000  0.60440000  0.52742000  1
  O  O434  1  0.80870000  0.46330000  0.53135000  1
  O  O435  1  0.13250000  0.91380000  0.53168000  1
  O  O436  1  0.54430000  0.43770000  0.53325000  1
  O  O437  1  0.11550000  0.11880000  0.54191000  1
  O  O438  1  0.80130000  0.60340000  0.56412000  1
  O  O439  1  0.04290000  0.96510000  0.56664000  1
  O  O440  1  0.76670000  0.41900000  0.57047000  1
  O  O441  1  0.03570000  0.13350000  0.58134000  1
  O  O442  1  0.52800000  0.63080000  0.58293000  1
  O  O443  1  0.52230000  0.45470000  0.59183000  1
  O  O444  1  0.23540000  0.92260000  0.59536000  1
  O  O445  1  0.26610000  0.09500000  0.60283000  1
  O  O446  1  0.74490000  0.52700000  0.60941000  1
  O  O447  1  0.54570000  0.60690000  0.62556000  1
  O  O448  1  0.58050000  0.41410000  0.63149000  1
  O  O449  1  0.02040000  0.92640000  0.63543000  1
  O  O450  1  0.27050000  0.95670000  0.63634000  1
  O  O451  1  0.33350000  0.12170000  0.64318000  1
  O  O452  1  0.08470000  0.09550000  0.64435000  1
  O  O453  1  0.77050000  0.63570000  0.64815000  1
  O  O454  1  0.81200000  0.45310000  0.65616000  1
  O  O455  1  0.09660000  0.94870000  0.67542000  1
  O  O456  1  0.14120000  0.13960000  0.68289000  1
  O  O457  1  0.81210000  0.59620000  0.68805000  1
  O  O458  1  0.56380000  0.61860000  0.68851000  1
  O  O459  1  0.63410000  0.45600000  0.69528000  1
  O  O460  1  0.88490000  0.42770000  0.69624000  1
  O  O461  1  0.33110000  0.91640000  0.70062000  1
  O  O462  1  0.36400000  0.10540000  0.70631000  1
  O  O463  1  0.63520000  0.59210000  0.72878000  1
  O  O464  1  0.67520000  0.41880000  0.73588000  1
  O  O465  1  0.39750000  0.95490000  0.73959000  1
  O  O466  1  0.37440000  0.13520000  0.74867000  1
  O  O467  1  0.87440000  0.63520000  0.75133000  1
  O  O468  1  0.89750000  0.45490000  0.76041000  1
  O  O469  1  0.17520000  0.91880000  0.76412000  1
  O  O470  1  0.13520000  0.09210000  0.77122000  1
  O  O471  1  0.86400000  0.60540000  0.79369000  1
  O  O472  1  0.83110000  0.41640000  0.79938000  1
  O  O473  1  0.38490000  0.92770000  0.80376000  1
  O  O474  1  0.13410000  0.95600000  0.80472000  1
  O  O475  1  0.06380000  0.11860000  0.81149000  1
  O  O476  1  0.31210000  0.09620000  0.81195000  1
  O  O477  1  0.64120000  0.63960000  0.81711000  1
  O  O478  1  0.59660000  0.44870000  0.82458000  1
  O  O479  1  0.31200000  0.95310000  0.84384000  1
  O  O480  1  0.27050000  0.13570000  0.85185000  1
  O  O481  1  0.58470000  0.59550000  0.85565000  1
  O  O482  1  0.83350000  0.62170000  0.85682000  1
  O  O483  1  0.77050000  0.45670000  0.86366000  1
  O  O484  1  0.52040000  0.42640000  0.86457000  1
  O  O485  1  0.08050000  0.91410000  0.86851000  1
  O  O486  1  0.04570000  0.10690000  0.87444000  1
  O  O487  1  0.24490000  0.02700000  0.89059000  1
  O  O488  1  0.76610000  0.59500000  0.89717000  1
  O  O489  1  0.73540000  0.42260000  0.90464000  1
  O  O490  1  0.02230000  0.95470000  0.90817000  1
  O  O491  1  0.02800000  0.13080000  0.91707000  1
  O  O492  1  0.53570000  0.63350000  0.91866000  1
  O  O493  1  0.26670000  0.91900000  0.92953000  1
  O  O494  1  0.54290000  0.46510000  0.93336000  1
  O  O495  1  0.30130000  0.10340000  0.93588000  1
  O  O496  1  0.61550000  0.61880000  0.95809000  1
  O  O497  1  0.04430000  0.93770000  0.96675000  1
  O  O498  1  0.63250000  0.41380000  0.96832000  1
  O  O499  1  0.30870000  0.96330000  0.96865000  1
  O  O500  1  0.10280000  0.10440000  0.97258000  1
  O  O501  1  0.36870000  0.12360000  0.97698000  1
  O  O502  1  0.83130000  0.63620000  0.98775000  1
  O  O503  1  0.86730000  0.46310000  0.99499000  1
