# generated using pymatgen
data_AgH8(CN)2
_symmetry_space_group_name_H-M   'P 1'
_cell_length_a   6.33600000
_cell_length_b   7.41473803
_cell_length_c   7.41473803
_cell_angle_alpha   89.75958320
_cell_angle_beta   72.24522359
_cell_angle_gamma   72.24522359
_symmetry_Int_Tables_number   1
_chemical_formula_structural   AgH8(CN)2
_chemical_formula_sum   'Ag2 H16 C4 N4'
_cell_volume   314.43245210
_cell_formula_units_Z   2
loop_
 _symmetry_equiv_pos_site_id
 _symmetry_equiv_pos_as_xyz
  1  'x, y, z'
loop_
 _atom_site_type_symbol
 _atom_site_label
 _atom_site_symmetry_multiplicity
 _atom_site_fract_x
 _atom_site_fract_y
 _atom_site_fract_z
 _atom_site_occupancy
  Ag  Ag0  1  0.00000000  0.50000000  0.50000000  1
  Ag  Ag1  1  0.50000000  0.50000000  0.50000000  1
  C  C2  1  0.45390000  0.10540000  0.52480000  1
  C  C3  1  0.95390000  0.52480000  0.10540000  1
  C  C4  1  0.54610000  0.89460000  0.47520000  1
  C  C5  1  0.04610000  0.47520000  0.89460000  1
  H  H6  1  0.41610000  0.13180000  0.66100000  1
  H  H7  1  0.91610000  0.66100000  0.13180000  1
  H  H8  1  0.31040000  0.15580000  0.49340000  1
  H  H9  1  0.81040000  0.49340000  0.15580000  1
  H  H10  1  0.75260000  0.15250000  0.45170000  1
  H  H11  1  0.25260000  0.45170000  0.15250000  1
  H  H12  1  0.35190000  0.81820000  0.69960000  1
  H  H13  1  0.85190000  0.69960000  0.81820000  1
  H  H14  1  0.64810000  0.18180000  0.30040000  1
  H  H15  1  0.14810000  0.30040000  0.18180000  1
  H  H16  1  0.24740000  0.84750000  0.54830000  1
  H  H17  1  0.74740000  0.54830000  0.84750000  1
  H  H18  1  0.68960000  0.84420000  0.50660000  1
  H  H19  1  0.18960000  0.50660000  0.84420000  1
  H  H20  1  0.58390000  0.86820000  0.33900000  1
  H  H21  1  0.08390000  0.33900000  0.86820000  1
  N  N22  1  0.61750000  0.20340000  0.42660000  1
  N  N23  1  0.11750000  0.42660000  0.20340000  1
  N  N24  1  0.38250000  0.79660000  0.57340000  1
  N  N25  1  0.88250000  0.57340000  0.79660000  1
