# generated using pymatgen
data_GdH6C21(NO3)6
_symmetry_space_group_name_H-M   'P 1'
_cell_length_a   13.36200000
_cell_length_b   19.48680000
_cell_length_c   19.48680000
_cell_angle_alpha   101.90100000
_cell_angle_beta   93.03940000
_cell_angle_gamma   93.03940000
_symmetry_Int_Tables_number   1
_chemical_formula_structural   GdH6C21(NO3)6
_chemical_formula_sum   'Gd4 H24 C84 N24 O72'
_cell_volume   4947.34375347
_cell_formula_units_Z   4
loop_
 _symmetry_equiv_pos_site_id
 _symmetry_equiv_pos_as_xyz
  1  'x, y, z'
loop_
 _atom_site_type_symbol
 _atom_site_label
 _atom_site_symmetry_multiplicity
 _atom_site_fract_x
 _atom_site_fract_y
 _atom_site_fract_z
 _atom_site_occupancy
  Gd  Gd0  1  0.14748000  0.03674000  0.51254000  1
  Gd  Gd1  1  0.35252000  0.48746000  0.96326000  1
  Gd  Gd2  1  0.64748000  0.51254000  0.03674000  1
  Gd  Gd3  1  0.85252000  0.96326000  0.48746000  1
  H  H4  1  0.00620000  0.24060000  0.66260000  1
  H  H5  1  0.06900000  0.19700000  0.38600000  1
  H  H6  1  0.15990000  0.69120000  0.92700000  1
  H  H7  1  0.17330000  0.93220000  0.34940000  1
  H  H8  1  0.20050000  0.90140000  0.66800000  1
  H  H9  1  0.21350000  0.55580000  0.75180000  1
  H  H10  1  0.28650000  0.24820000  0.44420000  1
  H  H11  1  0.29950000  0.33200000  0.09860000  1
  H  H12  1  0.32670000  0.65060000  0.06780000  1
  H  H13  1  0.34010000  0.07300000  0.30880000  1
  H  H14  1  0.43100000  0.61400000  0.80300000  1
  H  H15  1  0.49380000  0.33740000  0.75940000  1
  H  H16  1  0.50620000  0.66260000  0.24060000  1
  H  H17  1  0.56900000  0.38600000  0.19700000  1
  H  H18  1  0.65990000  0.92700000  0.69120000  1
  H  H19  1  0.67330000  0.34940000  0.93220000  1
  H  H20  1  0.70050000  0.66800000  0.90140000  1
  H  H21  1  0.71350000  0.75180000  0.55580000  1
  H  H22  1  0.78650000  0.44420000  0.24820000  1
  H  H23  1  0.79950000  0.09860000  0.33200000  1
  H  H24  1  0.82670000  0.06780000  0.65060000  1
  H  H25  1  0.84010000  0.30880000  0.07300000  1
  H  H26  1  0.93100000  0.80300000  0.61400000  1
  H  H27  1  0.99380000  0.75940000  0.33740000  1
  C  C28  1  0.00600000  0.89540000  0.40040000  1
  C  C29  1  0.00740000  0.19200000  0.36040000  1
  C  C30  1  0.01630000  0.76230000  0.68290000  1
  C  C31  1  0.04000000  0.91230000  0.58750000  1
  C  C32  1  0.05500000  0.78060000  0.32940000  1
  C  C33  1  0.06190000  0.86080000  0.63540000  1
  C  C34  1  0.07650000  0.85180000  0.35540000  1
  C  C35  1  0.10670000  0.76570000  0.72330000  1
  C  C36  1  0.12300000  0.74180000  0.29180000  1
  C  C37  1  0.12480000  0.72420000  0.83700000  1
  C  C38  1  0.13250000  0.71230000  0.76570000  1
  C  C39  1  0.15360000  0.86550000  0.67130000  1
  C  C40  1  0.16040000  0.67890000  0.87830000  1
  C  C41  1  0.16060000  0.88370000  0.33550000  1
  C  C42  1  0.16680000  0.64840000  0.73620000  1
  C  C43  1  0.17830000  0.81860000  0.71200000  1
  C  C44  1  0.19510000  0.59970000  0.77470000  1
  C  C45  1  0.19600000  0.61630000  0.84690000  1
  C  C46  1  0.21300000  0.77060000  0.27480000  1
  C  C47  1  0.22760000  0.84340000  0.29420000  1
  C  C48  1  0.23740000  0.56670000  0.89010000  1
  C  C49  1  0.26260000  0.10990000  0.43330000  1
  C  C50  1  0.27240000  0.70580000  0.15660000  1
  C  C51  1  0.28700000  0.72520000  0.22940000  1
  C  C52  1  0.30400000  0.15310000  0.38370000  1
  C  C53  1  0.30490000  0.22530000  0.40030000  1
  C  C54  1  0.32170000  0.28800000  0.18140000  1
  C  C55  1  0.33320000  0.26380000  0.35160000  1
  C  C56  1  0.33940000  0.66450000  0.11630000  1
  C  C57  1  0.33960000  0.12170000  0.32110000  1
  C  C58  1  0.34640000  0.32870000  0.13450000  1
  C  C59  1  0.36750000  0.23430000  0.28770000  1
  C  C60  1  0.37520000  0.16300000  0.27580000  1
  C  C61  1  0.37700000  0.70820000  0.25820000  1
  C  C62  1  0.39330000  0.27670000  0.23430000  1
  C  C63  1  0.42350000  0.64460000  0.14820000  1
  C  C64  1  0.43810000  0.36460000  0.13920000  1
  C  C65  1  0.44500000  0.67060000  0.21940000  1
  C  C66  1  0.46000000  0.41250000  0.08770000  1
  C  C67  1  0.48370000  0.31710000  0.23770000  1
  C  C68  1  0.49260000  0.63960000  0.80800000  1
  C  C69  1  0.49400000  0.59960000  0.10460000  1
  C  C70  1  0.50600000  0.40040000  0.89540000  1
  C  C71  1  0.50740000  0.36040000  0.19200000  1
  C  C72  1  0.51630000  0.68290000  0.76230000  1
  C  C73  1  0.54000000  0.58750000  0.91230000  1
  C  C74  1  0.55500000  0.32940000  0.78060000  1
  C  C75  1  0.56190000  0.63540000  0.86080000  1
  C  C76  1  0.57650000  0.35540000  0.85180000  1
  C  C77  1  0.60670000  0.72330000  0.76570000  1
  C  C78  1  0.62300000  0.29180000  0.74180000  1
  C  C79  1  0.62480000  0.83700000  0.72420000  1
  C  C80  1  0.63250000  0.76570000  0.71230000  1
  C  C81  1  0.65360000  0.67130000  0.86550000  1
  C  C82  1  0.66040000  0.87830000  0.67890000  1
  C  C83  1  0.66060000  0.33550000  0.88370000  1
  C  C84  1  0.66680000  0.73620000  0.64840000  1
  C  C85  1  0.67830000  0.71200000  0.81860000  1
  C  C86  1  0.69510000  0.77470000  0.59970000  1
  C  C87  1  0.69600000  0.84690000  0.61630000  1
  C  C88  1  0.71300000  0.27480000  0.77060000  1
  C  C89  1  0.72760000  0.29420000  0.84340000  1
  C  C90  1  0.73740000  0.89010000  0.56670000  1
  C  C91  1  0.76260000  0.43330000  0.10990000  1
  C  C92  1  0.77240000  0.15660000  0.70580000  1
  C  C93  1  0.78700000  0.22940000  0.72520000  1
  C  C94  1  0.80400000  0.38370000  0.15310000  1
  C  C95  1  0.80490000  0.40030000  0.22530000  1
  C  C96  1  0.82170000  0.18140000  0.28800000  1
  C  C97  1  0.83320000  0.35160000  0.26380000  1
  C  C98  1  0.83940000  0.11630000  0.66450000  1
  C  C99  1  0.83960000  0.32110000  0.12170000  1
  C  C100  1  0.84640000  0.13450000  0.32870000  1
  C  C101  1  0.86750000  0.28770000  0.23430000  1
  C  C102  1  0.87520000  0.27580000  0.16300000  1
  C  C103  1  0.87700000  0.25820000  0.70820000  1
  C  C104  1  0.89330000  0.23430000  0.27670000  1
  C  C105  1  0.92350000  0.14820000  0.64460000  1
  C  C106  1  0.93810000  0.13920000  0.36460000  1
  C  C107  1  0.94500000  0.21940000  0.67060000  1
  C  C108  1  0.96000000  0.08770000  0.41250000  1
  C  C109  1  0.98370000  0.23770000  0.31710000  1
  C  C110  1  0.99260000  0.80800000  0.63960000  1
  C  C111  1  0.99400000  0.10460000  0.59960000  1
  N  N112  1  0.05940000  0.29590000  0.31630000  1
  N  N113  1  0.08530000  0.78820000  0.87280000  1
  N  N114  1  0.10200000  0.66280000  0.27220000  1
  N  N115  1  0.17070000  0.62450000  0.65710000  1
  N  N116  1  0.18310000  0.72580000  0.12160000  1
  N  N117  1  0.22300000  0.25280000  0.17340000  1
  N  N118  1  0.27700000  0.82660000  0.74720000  1
  N  N119  1  0.31690000  0.87840000  0.27420000  1
  N  N120  1  0.32930000  0.34290000  0.37550000  1
  N  N121  1  0.39800000  0.72780000  0.33720000  1
  N  N122  1  0.41470000  0.12720000  0.21180000  1
  N  N123  1  0.44060000  0.68370000  0.70410000  1
  N  N124  1  0.55940000  0.31630000  0.29590000  1
  N  N125  1  0.58530000  0.87280000  0.78820000  1
  N  N126  1  0.60200000  0.27220000  0.66280000  1
  N  N127  1  0.67070000  0.65710000  0.62450000  1
  N  N128  1  0.68310000  0.12160000  0.72580000  1
  N  N129  1  0.72300000  0.17340000  0.25280000  1
  N  N130  1  0.77700000  0.74720000  0.82660000  1
  N  N131  1  0.81690000  0.27420000  0.87840000  1
  N  N132  1  0.82930000  0.37550000  0.34290000  1
  N  N133  1  0.89800000  0.33720000  0.72780000  1
  N  N134  1  0.91470000  0.21180000  0.12720000  1
  N  N135  1  0.94060000  0.70410000  0.68370000  1
  O  O136  1  0.01700000  0.64130000  0.26830000  1
  O  O137  1  0.03880000  0.95210000  0.43930000  1
  O  O138  1  0.04540000  0.09820000  0.44400000  1
  O  O139  1  0.04800000  0.82860000  0.84260000  1
  O  O140  1  0.05220000  0.33660000  0.28520000  1
  O  O141  1  0.07500000  0.79530000  0.93570000  1
  O  O142  1  0.08410000  0.12990000  0.60090000  1
  O  O143  1  0.10800000  0.72820000  0.14780000  1
  O  O144  1  0.11020000  0.95490000  0.58310000  1
  O  O145  1  0.11900000  0.31030000  0.36570000  1
  O  O146  1  0.15870000  0.27370000  0.14050000  1
  O  O147  1  0.16500000  0.56090000  0.63310000  1
  O  O148  1  0.17000000  0.62360000  0.26160000  1
  O  O149  1  0.18200000  0.67010000  0.62430000  1
  O  O150  1  0.18200000  0.72540000  0.06300000  1
  O  O151  1  0.20300000  0.20890000  0.20710000  1
  O  O152  1  0.23610000  0.04790000  0.40710000  1
  O  O153  1  0.24920000  0.50580000  0.86080000  1
  O  O154  1  0.25080000  0.13920000  0.49420000  1
  O  O155  1  0.26390000  0.59290000  0.95210000  1
  O  O156  1  0.29700000  0.79290000  0.79110000  1
  O  O157  1  0.31800000  0.37570000  0.32990000  1
  O  O158  1  0.31800000  0.93700000  0.27460000  1
  O  O159  1  0.33000000  0.73840000  0.37640000  1
  O  O160  1  0.33500000  0.36690000  0.43910000  1
  O  O161  1  0.34130000  0.85950000  0.72630000  1
  O  O162  1  0.38100000  0.63430000  0.68970000  1
  O  O163  1  0.38980000  0.41690000  0.04510000  1
  O  O164  1  0.39200000  0.85220000  0.27180000  1
  O  O165  1  0.41590000  0.39910000  0.87010000  1
  O  O166  1  0.42500000  0.06430000  0.20470000  1
  O  O167  1  0.44780000  0.71480000  0.66340000  1
  O  O168  1  0.45200000  0.15740000  0.17140000  1
  O  O169  1  0.45460000  0.55600000  0.90180000  1
  O  O170  1  0.46120000  0.56070000  0.04790000  1
  O  O171  1  0.48300000  0.73170000  0.35870000  1
  O  O172  1  0.51700000  0.26830000  0.64130000  1
  O  O173  1  0.53880000  0.43930000  0.95210000  1
  O  O174  1  0.54540000  0.44400000  0.09820000  1
  O  O175  1  0.54800000  0.84260000  0.82860000  1
  O  O176  1  0.55220000  0.28520000  0.33660000  1
  O  O177  1  0.57500000  0.93570000  0.79530000  1
  O  O178  1  0.58410000  0.60090000  0.12990000  1
  O  O179  1  0.60800000  0.14780000  0.72820000  1
  O  O180  1  0.61020000  0.58310000  0.95490000  1
  O  O181  1  0.61900000  0.36570000  0.31030000  1
  O  O182  1  0.65870000  0.14050000  0.27370000  1
  O  O183  1  0.66500000  0.63310000  0.56090000  1
  O  O184  1  0.67000000  0.26160000  0.62360000  1
  O  O185  1  0.68200000  0.06300000  0.72540000  1
  O  O186  1  0.68200000  0.62430000  0.67010000  1
  O  O187  1  0.70300000  0.20710000  0.20890000  1
  O  O188  1  0.73610000  0.40710000  0.04790000  1
  O  O189  1  0.74920000  0.86080000  0.50580000  1
  O  O190  1  0.75080000  0.49420000  0.13920000  1
  O  O191  1  0.76390000  0.95210000  0.59290000  1
  O  O192  1  0.79700000  0.79110000  0.79290000  1
  O  O193  1  0.81800000  0.27460000  0.93700000  1
  O  O194  1  0.81800000  0.32990000  0.37570000  1
  O  O195  1  0.83000000  0.37640000  0.73840000  1
  O  O196  1  0.83500000  0.43910000  0.36690000  1
  O  O197  1  0.84130000  0.72630000  0.85950000  1
  O  O198  1  0.88100000  0.68970000  0.63430000  1
  O  O199  1  0.88980000  0.04510000  0.41690000  1
  O  O200  1  0.89200000  0.27180000  0.85220000  1
  O  O201  1  0.91590000  0.87010000  0.39910000  1
  O  O202  1  0.92500000  0.20470000  0.06430000  1
  O  O203  1  0.94780000  0.66340000  0.71480000  1
  O  O204  1  0.95200000  0.17140000  0.15740000  1
  O  O205  1  0.95460000  0.90180000  0.55600000  1
  O  O206  1  0.96120000  0.04790000  0.56070000  1
  O  O207  1  0.98300000  0.35870000  0.73170000  1
