# generated using pymatgen
data_CoH8(C3O2)2
_symmetry_space_group_name_H-M   'P 1'
_cell_length_a   13.36100000
_cell_length_b   21.14038062
_cell_length_c   21.14038062
_cell_angle_alpha   84.26888108
_cell_angle_beta   71.57840743
_cell_angle_gamma   71.57840743
_symmetry_Int_Tables_number   1
_chemical_formula_structural   CoH8(C3O2)2
_chemical_formula_sum   'Co16 H128 C96 O64'
_cell_volume   5374.95142961
_cell_formula_units_Z   16
loop_
 _symmetry_equiv_pos_site_id
 _symmetry_equiv_pos_as_xyz
  1  'x, y, z'
loop_
 _atom_site_type_symbol
 _atom_site_label
 _atom_site_symmetry_multiplicity
 _atom_site_fract_x
 _atom_site_fract_y
 _atom_site_fract_z
 _atom_site_occupancy
  C  C0  1  0.47129000  0.59573000  0.39769000  1
  C  C1  1  0.53529000  0.09573000  0.89769000  1
  C  C2  1  0.40801000  0.56768000  0.36430000  1
  C  C3  1  0.66001000  0.06768000  0.86430000  1
  C  C4  1  0.49747000  0.82996000  0.08910000  1
  C  C5  1  0.58347000  0.32996000  0.58910000  1
  C  C6  1  0.62121000  0.79961000  0.05537000  1
  C  C7  1  0.52381000  0.29961000  0.55537000  1
  C  C8  1  0.46835000  0.49725000  0.33985000  1
  C  C9  1  0.69455000  0.99725000  0.83985000  1
  C  C10  1  0.66269000  0.82467000  0.98555000  1
  C  C11  1  0.52709000  0.32467000  0.48555000  1
  C  C12  1  0.41343000  0.58910000  0.17004000  1
  C  C13  1  0.82743000  0.08910000  0.67004000  1
  C  C14  1  0.32342000  0.55537000  0.20039000  1
  C  C15  1  0.92082000  0.05537000  0.70039000  1
  C  C16  1  0.08808000  0.85396000  0.87508000  1
  C  C17  1  0.18288000  0.35396000  0.37508000  1
  C  C18  1  0.97790000  0.85455000  0.86805000  1
  C  C19  1  0.29950000  0.35455000  0.36805000  1
  C  C20  1  0.52431000  0.63570000  0.06768000  1
  C  C21  1  0.77231000  0.13570000  0.56768000  1
  C  C22  1  0.43298000  0.60231000  0.09573000  1
  C  C23  1  0.86898000  0.10231000  0.59573000  1
  C  C24  1  0.35176000  0.48555000  0.17533000  1
  C  C25  1  0.98736000  0.98555000  0.67533000  1
  C  C26  1  0.28146000  0.78724000  0.87124000  1
  C  C27  1  0.06006000  0.28724000  0.37124000  1
  C  C28  1  0.53440000  0.66015000  0.99725000  1
  C  C29  1  0.80820000  0.16015000  0.49725000  1
  C  C30  1  0.37330000  0.35606000  0.29734000  1
  C  C31  1  0.97330000  0.85606000  0.79734000  1
  C  C32  1  0.17632000  0.78711000  0.85825000  1
  C  C33  1  0.17832000  0.28711000  0.35825000  1
  C  C34  1  0.76981000  0.35888000  0.27830000  1
  C  C35  1  0.59301000  0.85888000  0.77830000  1
  C  C36  1  0.84730000  0.37124000  0.21276000  1
  C  C37  1  0.56870000  0.87124000  0.71276000  1
  C  C38  1  0.37131000  0.72170000  0.85888000  1
  C  C39  1  0.04811000  0.22170000  0.35888000  1
  C  C40  1  0.96543000  0.35825000  0.21289000  1
  C  C41  1  0.46343000  0.85825000  0.71289000  1
  C  C42  1  0.77064000  0.70266000  0.85606000  1
  C  C43  1  0.67064000  0.20266000  0.35606000  1
  C  C44  1  0.03684000  0.37508000  0.14604000  1
  C  C45  1  0.44204000  0.87508000  0.64604000  1
  C  C46  1  0.15405000  0.36805000  0.14545000  1
  C  C47  1  0.33245000  0.86805000  0.64545000  1
  C  C48  1  0.84595000  0.63195000  0.85455000  1
  C  C49  1  0.66755000  0.13195000  0.35455000  1
  C  C50  1  0.96316000  0.62492000  0.85396000  1
  C  C51  1  0.55796000  0.12492000  0.35396000  1
  C  C52  1  0.22936000  0.29734000  0.14394000  1
  C  C53  1  0.32936000  0.79734000  0.64394000  1
  C  C54  1  0.03457000  0.64175000  0.78711000  1
  C  C55  1  0.53657000  0.14175000  0.28711000  1
  C  C56  1  0.62869000  0.27830000  0.14112000  1
  C  C57  1  0.95189000  0.77830000  0.64112000  1
  C  C58  1  0.15270000  0.62876000  0.78724000  1
  C  C59  1  0.43130000  0.12876000  0.28724000  1
  C  C60  1  0.23019000  0.64112000  0.72170000  1
  C  C61  1  0.40699000  0.14112000  0.22170000  1
  C  C62  1  0.82368000  0.21289000  0.14175000  1
  C  C63  1  0.82168000  0.71289000  0.64175000  1
  C  C64  1  0.62670000  0.64394000  0.70266000  1
  C  C65  1  0.02670000  0.14394000  0.20266000  1
  C  C66  1  0.46560000  0.33985000  0.00275000  1
  C  C67  1  0.19180000  0.83985000  0.50275000  1
  C  C68  1  0.71854000  0.21276000  0.12876000  1
  C  C69  1  0.93994000  0.71276000  0.62876000  1
  C  C70  1  0.64824000  0.51445000  0.82467000  1
  C  C71  1  0.01264000  0.01445000  0.32467000  1
  C  C72  1  0.56702000  0.39769000  0.90427000  1
  C  C73  1  0.13102000  0.89769000  0.40427000  1
  C  C74  1  0.47569000  0.36430000  0.93232000  1
  C  C75  1  0.22769000  0.86430000  0.43232000  1
  C  C76  1  0.02210000  0.14545000  0.13195000  1
  C  C77  1  0.70050000  0.64545000  0.63195000  1
  C  C78  1  0.91192000  0.14604000  0.12492000  1
  C  C79  1  0.81712000  0.64604000  0.62492000  1
  C  C80  1  0.67658000  0.44463000  0.79961000  1
  C  C81  1  0.07918000  0.94463000  0.29961000  1
  C  C82  1  0.58657000  0.41090000  0.82996000  1
  C  C83  1  0.17257000  0.91090000  0.32996000  1
  C  C84  1  0.33731000  0.17533000  0.01445000  1
  C  C85  1  0.47291000  0.67533000  0.51445000  1
  C  C86  1  0.53165000  0.50275000  0.66015000  1
  C  C87  1  0.30545000  0.00275000  0.16015000  1
  C  C88  1  0.37879000  0.20039000  0.94463000  1
  C  C89  1  0.47619000  0.70039000  0.44463000  1
  C  C90  1  0.50253000  0.17004000  0.91090000  1
  C  C91  1  0.41653000  0.67004000  0.41090000  1
  C  C92  1  0.59199000  0.43232000  0.63570000  1
  C  C93  1  0.33999000  0.93232000  0.13570000  1
  C  C94  1  0.52871000  0.40427000  0.60231000  1
  C  C95  1  0.46471000  0.90427000  0.10231000  1
  Co  Co96  1  0.73661000  0.85178000  0.86456000  1
  Co  Co97  1  0.54705000  0.35178000  0.36456000  1
  Co  Co98  1  0.52126000  0.78242000  0.90890000  1
  Co  Co99  1  0.78742000  0.28242000  0.40890000  1
  Co  Co100  1  0.56984000  0.40890000  0.21758000  1
  Co  Co101  1  0.80368000  0.90890000  0.71758000  1
  Co  Co102  1  0.39883000  0.36456000  0.14822000  1
  Co  Co103  1  0.08839000  0.86456000  0.64822000  1
  Co  Co104  1  0.60117000  0.63544000  0.85178000  1
  Co  Co105  1  0.91161000  0.13544000  0.35178000  1
  Co  Co106  1  0.43016000  0.59110000  0.78242000  1
  Co  Co107  1  0.19632000  0.09110000  0.28242000  1
  Co  Co108  1  0.47874000  0.21758000  0.09110000  1
  Co  Co109  1  0.21258000  0.71758000  0.59110000  1
  Co  Co110  1  0.26339000  0.14822000  0.13544000  1
  Co  Co111  1  0.45295000  0.64822000  0.63544000  1
  H  H112  1  0.48600000  0.92790000  0.05970000  1
  H  H113  1  0.52640000  0.42790000  0.55970000  1
  H  H114  1  0.33520000  0.56900000  0.39660000  1
  H  H115  1  0.69920000  0.06900000  0.89660000  1
  H  H116  1  0.54830000  0.58800000  0.36860000  1
  H  H117  1  0.49510000  0.08800000  0.86860000  1
  H  H118  1  0.47590000  0.80670000  0.13190000  1
  H  H119  1  0.58550000  0.30670000  0.63190000  1
  H  H120  1  0.39450000  0.59650000  0.32610000  1
  H  H121  1  0.68290000  0.09650000  0.82610000  1
  H  H122  1  0.66220000  0.80920000  0.08300000  1
  H  H123  1  0.44560000  0.30920000  0.58300000  1
  H  H124  1  0.45620000  0.82260000  0.06040000  1
  H  H125  1  0.66080000  0.32260000  0.56040000  1
  H  H126  1  0.39220000  0.63190000  0.19330000  1
  H  H127  1  0.78260000  0.13190000  0.69330000  1
  H  H128  1  0.63810000  0.75060000  0.05380000  1
  H  H129  1  0.55750000  0.25060000  0.55380000  1
  H  H130  1  0.30810000  0.55380000  0.24940000  1
  H  H131  1  0.88870000  0.05380000  0.74940000  1
  H  H132  1  0.07680000  0.86590000  0.92150000  1
  H  H133  1  0.13580000  0.36590000  0.42150000  1
  H  H134  1  0.29420000  0.39400000  0.39200000  1
  H  H135  1  0.91980000  0.89400000  0.89200000  1
  H  H136  1  0.25480000  0.58300000  0.19080000  1
  H  H137  1  0.97140000  0.08300000  0.69080000  1
  H  H138  1  0.50900000  0.67390000  0.09650000  1
  H  H139  1  0.72060000  0.17390000  0.59650000  1
  H  H140  1  0.48340000  0.56040000  0.17740000  1
  H  H141  1  0.77880000  0.06040000  0.67740000  1
  H  H142  1  0.15180000  0.38840000  0.34540000  1
  H  H143  1  0.11440000  0.88840000  0.84540000  1
  H  H144  1  0.36370000  0.63140000  0.08800000  1
  H  H145  1  0.91690000  0.13140000  0.58800000  1
  H  H146  1  0.26310000  0.80040000  0.91820000  1
  H  H147  1  0.01830000  0.30040000  0.41820000  1
  H  H148  1  0.95970000  0.81440000  0.89040000  1
  H  H149  1  0.33550000  0.31440000  0.39040000  1
  H  H150  1  0.59580000  0.60340000  0.06900000  1
  H  H151  1  0.73180000  0.10340000  0.56900000  1
  H  H152  1  0.31020000  0.82150000  0.84250000  1
  H  H153  1  0.02580000  0.32150000  0.34250000  1
  H  H154  1  0.14840000  0.75190000  0.88550000  1
  H  H155  1  0.21420000  0.25190000  0.38550000  1
  H  H156  1  0.96610000  0.38550000  0.24810000  1
  H  H157  1  0.40030000  0.88550000  0.74810000  1
  H  H158  1  0.45430000  0.55970000  0.07210000  1
  H  H159  1  0.91390000  0.05970000  0.57210000  1
  H  H160  1  0.81870000  0.41820000  0.19960000  1
  H  H161  1  0.56350000  0.91820000  0.69960000  1
  H  H162  1  0.19290000  0.77670000  0.81070000  1
  H  H163  1  0.21970000  0.27670000  0.31070000  1
  H  H164  1  0.14990000  0.39040000  0.18560000  1
  H  H165  1  0.27410000  0.89040000  0.68560000  1
  H  H166  1  0.00170000  0.42150000  0.13410000  1
  H  H167  1  0.44270000  0.92150000  0.63410000  1
  H  H168  1  0.95980000  0.65460000  0.88840000  1
  H  H169  1  0.49720000  0.15460000  0.38840000  1
  H  H170  1  0.99640000  0.31070000  0.22330000  1
  H  H171  1  0.46960000  0.81070000  0.72330000  1
  H  H172  1  0.84730000  0.34250000  0.17850000  1
  H  H173  1  0.63170000  0.84250000  0.67850000  1
  H  H174  1  0.81180000  0.60800000  0.89400000  1
  H  H175  1  0.68620000  0.10800000  0.39400000  1
  H  H176  1  0.18820000  0.39200000  0.10600000  1
  H  H177  1  0.31380000  0.89200000  0.60600000  1
  H  H178  1  0.15270000  0.65750000  0.82150000  1
  H  H179  1  0.36830000  0.15750000  0.32150000  1
  H  H180  1  0.00360000  0.68930000  0.77670000  1
  H  H181  1  0.53040000  0.18930000  0.27670000  1
  H  H182  1  0.04020000  0.34540000  0.11160000  1
  H  H183  1  0.50280000  0.84540000  0.61160000  1
  H  H184  1  0.99830000  0.57850000  0.86590000  1
  H  H185  1  0.55730000  0.07850000  0.36590000  1
  H  H186  1  0.85010000  0.60960000  0.81440000  1
  H  H187  1  0.72590000  0.10960000  0.31440000  1
  H  H188  1  0.80710000  0.22330000  0.18930000  1
  H  H189  1  0.78030000  0.72330000  0.68930000  1
  H  H190  1  0.18130000  0.58180000  0.80040000  1
  H  H191  1  0.43650000  0.08180000  0.30040000  1
  H  H192  1  0.54570000  0.44030000  0.92790000  1
  H  H193  1  0.08610000  0.94030000  0.42790000  1
  H  H194  1  0.03390000  0.61450000  0.75190000  1
  H  H195  1  0.59970000  0.11450000  0.25190000  1
  H  H196  1  0.85160000  0.24810000  0.11450000  1
  H  H197  1  0.78580000  0.74810000  0.61450000  1
  H  H198  1  0.68980000  0.17850000  0.15750000  1
  H  H199  1  0.97420000  0.67850000  0.65750000  1
  H  H200  1  0.40420000  0.39660000  0.93100000  1
  H  H201  1  0.26820000  0.89660000  0.43100000  1
  H  H202  1  0.04030000  0.18560000  0.10960000  1
  H  H203  1  0.66450000  0.68560000  0.60960000  1
  H  H204  1  0.73690000  0.19960000  0.08180000  1
  H  H205  1  0.98170000  0.69960000  0.58180000  1
  H  H206  1  0.63630000  0.36860000  0.91200000  1
  H  H207  1  0.08310000  0.86860000  0.41200000  1
  H  H208  1  0.84820000  0.61160000  0.65460000  1
  H  H209  1  0.88560000  0.11160000  0.15460000  1
  H  H210  1  0.51660000  0.43960000  0.82260000  1
  H  H211  1  0.22120000  0.93960000  0.32260000  1
  H  H212  1  0.49100000  0.32610000  0.90350000  1
  H  H213  1  0.27940000  0.82610000  0.40350000  1
  H  H214  1  0.74520000  0.41700000  0.80920000  1
  H  H215  1  0.02860000  0.91700000  0.30920000  1
  H  H216  1  0.70580000  0.60600000  0.60800000  1
  H  H217  1  0.08020000  0.10600000  0.10800000  1
  H  H218  1  0.92320000  0.13410000  0.07850000  1
  H  H219  1  0.86420000  0.63410000  0.57850000  1
  H  H220  1  0.69190000  0.44620000  0.75060000  1
  H  H221  1  0.11130000  0.94620000  0.25060000  1
  H  H222  1  0.36190000  0.24940000  0.94620000  1
  H  H223  1  0.44250000  0.74940000  0.44620000  1
  H  H224  1  0.60780000  0.36810000  0.80670000  1
  H  H225  1  0.21740000  0.86810000  0.30670000  1
  H  H226  1  0.54380000  0.17740000  0.93960000  1
  H  H227  1  0.33920000  0.67740000  0.43960000  1
  H  H228  1  0.33780000  0.19080000  0.91700000  1
  H  H229  1  0.55440000  0.69080000  0.41700000  1
  H  H230  1  0.60550000  0.40350000  0.67390000  1
  H  H231  1  0.31710000  0.90350000  0.17390000  1
  H  H232  1  0.52410000  0.19330000  0.86810000  1
  H  H233  1  0.41450000  0.69330000  0.36810000  1
  H  H234  1  0.45170000  0.41200000  0.63140000  1
  H  H235  1  0.50490000  0.91200000  0.13140000  1
  H  H236  1  0.66480000  0.43100000  0.60340000  1
  H  H237  1  0.30080000  0.93100000  0.10340000  1
  H  H238  1  0.51400000  0.07210000  0.94030000  1
  H  H239  1  0.47360000  0.57210000  0.44030000  1
  O  O240  1  0.47931000  0.45191000  0.38307000  1
  O  O241  1  0.68571000  0.95191000  0.88307000  1
  O  O242  1  0.75460000  0.83457000  0.96523000  1
  O  O243  1  0.44560000  0.33457000  0.46523000  1
  O  O244  1  0.60324000  0.83426000  0.94526000  1
  O  O245  1  0.61724000  0.33426000  0.44526000  1
  O  O246  1  0.50418000  0.48974000  0.27790000  1
  O  O247  1  0.72818000  0.98974000  0.77790000  1
  O  O248  1  0.50608000  0.72210000  0.98974000  1
  O  O249  1  0.78208000  0.22210000  0.48974000  1
  O  O250  1  0.80435000  0.34406000  0.32824000  1
  O  O251  1  0.52335000  0.84406000  0.82824000  1
  O  O252  1  0.46904000  0.36061000  0.29051000  1
  O  O253  1  0.87984000  0.86061000  0.79051000  1
  O  O254  1  0.67105000  0.36383000  0.28047000  1
  O  O255  1  0.68465000  0.86383000  0.78047000  1
  O  O256  1  0.28017000  0.46523000  0.16543000  1
  O  O257  1  0.08917000  0.96523000  0.66543000  1
  O  O258  1  0.45150000  0.44526000  0.16574000  1
  O  O259  1  0.93750000  0.94526000  0.66574000  1
  O  O260  1  0.80759000  0.75008000  0.85534000  1
  O  O261  1  0.58699000  0.25008000  0.35534000  1
  O  O262  1  0.33707000  0.35534000  0.24992000  1
  O  O263  1  0.05767000  0.85534000  0.74992000  1
  O  O264  1  0.46512000  0.71953000  0.86383000  1
  O  O265  1  0.95152000  0.21953000  0.36383000  1
  O  O266  1  0.67035000  0.70949000  0.86061000  1
  O  O267  1  0.75955000  0.20949000  0.36061000  1
  O  O268  1  0.56878000  0.61693000  0.95191000  1
  O  O269  1  0.86238000  0.11693000  0.45191000  1
  O  O270  1  0.35159000  0.67176000  0.84406000  1
  O  O271  1  0.13259000  0.17176000  0.34406000  1
  O  O272  1  0.64841000  0.32824000  0.15594000  1
  O  O273  1  0.86741000  0.82824000  0.65594000  1
  O  O274  1  0.43122000  0.38307000  0.04809000  1
  O  O275  1  0.13762000  0.88307000  0.54809000  1
  O  O276  1  0.32965000  0.29051000  0.13939000  1
  O  O277  1  0.24045000  0.79051000  0.63939000  1
  O  O278  1  0.53488000  0.28047000  0.13617000  1
  O  O279  1  0.04848000  0.78047000  0.63617000  1
  O  O280  1  0.66293000  0.64466000  0.75008000  1
  O  O281  1  0.94233000  0.14466000  0.25008000  1
  O  O282  1  0.19241000  0.24992000  0.14466000  1
  O  O283  1  0.41301000  0.74992000  0.64466000  1
  O  O284  1  0.54850000  0.55474000  0.83426000  1
  O  O285  1  0.06250000  0.05474000  0.33426000  1
  O  O286  1  0.71983000  0.53477000  0.83457000  1
  O  O287  1  0.91083000  0.03477000  0.33457000  1
  O  O288  1  0.32895000  0.63617000  0.71953000  1
  O  O289  1  0.31535000  0.13617000  0.21953000  1
  O  O290  1  0.53096000  0.63939000  0.70949000  1
  O  O291  1  0.12016000  0.13939000  0.20949000  1
  O  O292  1  0.19565000  0.65594000  0.67176000  1
  O  O293  1  0.47665000  0.15594000  0.17176000  1
  O  O294  1  0.49392000  0.27790000  0.01026000  1
  O  O295  1  0.21792000  0.77790000  0.51026000  1
  O  O296  1  0.49582000  0.51026000  0.72210000  1
  O  O297  1  0.27182000  0.01026000  0.22210000  1
  O  O298  1  0.39676000  0.16574000  0.05474000  1
  O  O299  1  0.38276000  0.66574000  0.55474000  1
  O  O300  1  0.24540000  0.16543000  0.03477000  1
  O  O301  1  0.55440000  0.66543000  0.53477000  1
  O  O302  1  0.52069000  0.54809000  0.61693000  1
  O  O303  1  0.31429000  0.04809000  0.11693000  1
