# generated using pymatgen
data_ZnH3C8SO7
_symmetry_space_group_name_H-M   'P 1'
_cell_length_a   11.22080000
_cell_length_b   11.75750000
_cell_length_c   12.59931295
_cell_angle_alpha   90.00000000
_cell_angle_beta   94.49582633
_cell_angle_gamma   90.00000000
_symmetry_Int_Tables_number   1
_chemical_formula_structural   ZnH3C8SO7
_chemical_formula_sum   'Zn4 H12 C32 S4 O28'
_cell_volume   1657.09462294
_cell_formula_units_Z   4
loop_
 _symmetry_equiv_pos_site_id
 _symmetry_equiv_pos_as_xyz
  1  'x, y, z'
loop_
 _atom_site_type_symbol
 _atom_site_label
 _atom_site_symmetry_multiplicity
 _atom_site_fract_x
 _atom_site_fract_y
 _atom_site_fract_z
 _atom_site_occupancy
  Zn  Zn0  1  0.84103000  0.97281000  0.01762000  1
  Zn  Zn1  1  0.34103000  0.52719000  0.51762000  1
  Zn  Zn2  1  0.65897000  0.47281000  0.48238000  1
  Zn  Zn3  1  0.15897000  0.02719000  0.98238000  1
  H  H4  1  0.32370000  0.78930000  0.34630000  1
  H  H5  1  0.82370000  0.71070000  0.84630000  1
  H  H6  1  0.04440000  0.48870000  0.37990000  1
  H  H7  1  0.54440000  0.01130000  0.87990000  1
  H  H8  1  0.33780000  0.25890000  0.73670000  1
  H  H9  1  0.83780000  0.24110000  0.23670000  1
  H  H10  1  0.16220000  0.75890000  0.76330000  1
  H  H11  1  0.66220000  0.74110000  0.26330000  1
  H  H12  1  0.45560000  0.98870000  0.12010000  1
  H  H13  1  0.95560000  0.51130000  0.62010000  1
  H  H14  1  0.17630000  0.28930000  0.15370000  1
  H  H15  1  0.67630000  0.21070000  0.65370000  1
  C  C16  1  0.11272000  0.30947000  0.19552000  1
  C  C17  1  0.61272000  0.19053000  0.69552000  1
  C  C18  1  0.49108000  0.34734000  0.60838000  1
  C  C19  1  0.99108000  0.15266000  0.10838000  1
  C  C20  1  0.12646000  0.39782000  0.26806000  1
  C  C21  1  0.62646000  0.10218000  0.76806000  1
  C  C22  1  0.00465000  0.25024000  0.18415000  1
  C  C23  1  0.50465000  0.24976000  0.68415000  1
  C  C24  1  0.03377000  0.42857000  0.32967000  1
  C  C25  1  0.53377000  0.07143000  0.82967000  1
  C  C26  1  0.91148000  0.28114000  0.24468000  1
  C  C27  1  0.41148000  0.21886000  0.74468000  1
  C  C28  1  0.92573000  0.37061000  0.31703000  1
  C  C29  1  0.42573000  0.12939000  0.81703000  1
  C  C30  1  0.67551000  0.90431000  0.11921000  1
  C  C31  1  0.17551000  0.59569000  0.61921000  1
  C  C32  1  0.82449000  0.40431000  0.38079000  1
  C  C33  1  0.32449000  0.09569000  0.88079000  1
  C  C34  1  0.57427000  0.87061000  0.18297000  1
  C  C35  1  0.07427000  0.62939000  0.68297000  1
  C  C36  1  0.58852000  0.78114000  0.25532000  1
  C  C37  1  0.08852000  0.71886000  0.75532000  1
  C  C38  1  0.46623000  0.92857000  0.17033000  1
  C  C39  1  0.96623000  0.57143000  0.67033000  1
  C  C40  1  0.49535000  0.75024000  0.31585000  1
  C  C41  1  0.99535000  0.74976000  0.81585000  1
  C  C42  1  0.37354000  0.89782000  0.23194000  1
  C  C43  1  0.87354000  0.60218000  0.73194000  1
  C  C44  1  0.00892000  0.84734000  0.89162000  1
  C  C45  1  0.50892000  0.65266000  0.39162000  1
  C  C46  1  0.38728000  0.80947000  0.30448000  1
  C  C47  1  0.88728000  0.69053000  0.80448000  1
  S  S48  1  0.26348000  0.47379000  0.28517000  1
  S  S49  1  0.76348000  0.02621000  0.78517000  1
  S  S50  1  0.23652000  0.97379000  0.21483000  1
  S  S51  1  0.73652000  0.52621000  0.71483000  1
  O  O52  1  0.94156000  0.85029000  0.96658000  1
  O  O53  1  0.44156000  0.64971000  0.46658000  1
  O  O54  1  0.73201000  0.90843000  0.79461000  1
  O  O55  1  0.23201000  0.59157000  0.29461000  1
  O  O56  1  0.32318000  0.42963000  0.38587000  1
  O  O57  1  0.82318000  0.07037000  0.88587000  1
  O  O58  1  0.16959000  0.94595000  0.30404000  1
  O  O59  1  0.66959000  0.55405000  0.80404000  1
  O  O60  1  0.41186000  0.42024000  0.62536000  1
  O  O61  1  0.91186000  0.07976000  0.12536000  1
  O  O62  1  0.77278000  0.85211000  0.13122000  1
  O  O63  1  0.27278000  0.64789000  0.63122000  1
  O  O64  1  0.66171000  0.98590000  0.05437000  1
  O  O65  1  0.16171000  0.51410000  0.55437000  1
  O  O66  1  0.83829000  0.48590000  0.44563000  1
  O  O67  1  0.33829000  0.01410000  0.94563000  1
  O  O68  1  0.72722000  0.35211000  0.36878000  1
  O  O69  1  0.22722000  0.14789000  0.86878000  1
  O  O70  1  0.08814000  0.92024000  0.87464000  1
  O  O71  1  0.58814000  0.57976000  0.37464000  1
  O  O72  1  0.33041000  0.44595000  0.19596000  1
  O  O73  1  0.83041000  0.05405000  0.69596000  1
  O  O74  1  0.17682000  0.92963000  0.11413000  1
  O  O75  1  0.67682000  0.57037000  0.61413000  1
  O  O76  1  0.76799000  0.40843000  0.70539000  1
  O  O77  1  0.26799000  0.09157000  0.20539000  1
  O  O78  1  0.55844000  0.35029000  0.53342000  1
  O  O79  1  0.05844000  0.14971000  0.03342000  1
