# generated using pymatgen
data_CdH27(C11O3)3
_symmetry_space_group_name_H-M   'P 1'
_cell_length_a   9.69280000
_cell_length_b   12.79394518
_cell_length_c   35.38900000
_cell_angle_alpha   92.58100853
_cell_angle_beta   90.00000000
_cell_angle_gamma   112.25963090
_symmetry_Int_Tables_number   1
_chemical_formula_structural   CdH27(C11O3)3
_chemical_formula_sum   'Cd4 H108 C132 O36'
_cell_volume   4056.69967005
_cell_formula_units_Z   4
loop_
 _symmetry_equiv_pos_site_id
 _symmetry_equiv_pos_as_xyz
  1  'x, y, z'
loop_
 _atom_site_type_symbol
 _atom_site_label
 _atom_site_symmetry_multiplicity
 _atom_site_fract_x
 _atom_site_fract_y
 _atom_site_fract_z
 _atom_site_occupancy
  C  C0  1  0.78395000  0.96850000  0.47144000  1
  C  C1  1  0.18455000  0.96850000  0.97144000  1
  C  C2  1  0.94750000  0.91840000  0.08005000  1
  C  C3  1  0.97090000  0.91840000  0.58005000  1
  C  C4  1  0.81305000  0.91430000  0.01773000  1
  C  C5  1  0.10125000  0.91430000  0.51773000  1
  C  C6  1  0.65970000  0.91200000  0.95889000  1
  C  C7  1  0.25230000  0.91200000  0.45889000  1
  C  C8  1  0.52700000  0.88920000  0.39168000  1
  C  C9  1  0.36220000  0.88920000  0.89168000  1
  C  C10  1  0.59026000  0.87972000  0.42515000  1
  C  C11  1  0.28946000  0.87972000  0.92515000  1
  C  C12  1  0.88170000  0.86360000  0.04163000  1
  C  C13  1  0.98190000  0.86360000  0.54163000  1
  C  C14  1  0.74860000  0.86060000  0.98354000  1
  C  C15  1  0.11200000  0.86060000  0.48354000  1
  C  C16  1  0.43620000  0.79680000  0.37016000  1
  C  C17  1  0.36060000  0.79680000  0.87016000  1
  C  C18  1  0.41620000  0.78200000  0.56572000  1
  C  C19  1  0.36580000  0.78200000  0.06572000  1
  C  C20  1  0.81020000  0.78080000  0.35254000  1
  C  C21  1  0.97060000  0.78080000  0.85254000  1
  C  C22  1  0.55990000  0.77440000  0.43820000  1
  C  C23  1  0.21450000  0.77440000  0.93820000  1
  C  C24  1  0.47220000  0.76320000  0.08707000  1
  C  C25  1  0.29100000  0.76320000  0.58707000  1
  C  C26  1  0.78440000  0.76040000  0.31408000  1
  C  C27  1  0.97600000  0.76040000  0.81408000  1
  C  C28  1  0.86900000  0.75880000  0.53039000  1
  C  C29  1  0.88980000  0.75880000  0.03039000  1
  C  C30  1  0.76230000  0.75840000  0.97105000  1
  C  C31  1  0.99610000  0.75840000  0.47105000  1
  C  C32  1  0.83760000  0.73560000  0.87111000  1
  C  C33  1  0.89800000  0.73560000  0.37111000  1
  C  C34  1  0.50530000  0.72160000  0.57047000  1
  C  C35  1  0.21630000  0.72160000  0.07047000  1
  C  C36  1  0.71400000  0.71200000  0.93135000  1
  C  C37  1  0.99800000  0.71200000  0.43135000  1
  C  C38  1  0.83450000  0.70860000  0.99424000  1
  C  C39  1  0.87410000  0.70860000  0.49424000  1
  C  C40  1  0.74050000  0.70280000  0.55628000  1
  C  C41  1  0.96230000  0.70280000  0.05628000  1
  C  C42  1  0.84630000  0.69500000  0.29337000  1
  C  C43  1  0.84870000  0.69500000  0.79337000  1
  C  C44  1  0.40850000  0.68900000  0.38255000  1
  C  C45  1  0.28050000  0.68900000  0.88255000  1
  C  C46  1  0.42890000  0.68300000  0.11417000  1
  C  C47  1  0.25410000  0.68300000  0.61417000  1
  C  C48  1  0.46920000  0.68120000  0.41620000  1
  C  C49  1  0.21200000  0.68120000  0.91620000  1
  C  C50  1  0.70960000  0.67140000  0.85087000  1
  C  C51  1  0.96180000  0.67140000  0.35087000  1
  C  C52  1  0.81230000  0.66920000  0.25114000  1
  C  C53  1  0.85690000  0.66920000  0.75114000  1
  C  C54  1  0.54371667  0.66663333  0.13849000  1
  C  C55  1  0.12291667  0.66663333  0.63849000  1
  C  C56  1  0.71690000  0.65040000  0.81252000  1
  C  C57  1  0.93350000  0.65040000  0.31252000  1
  C  C58  1  0.46710000  0.64060000  0.59669000  1
  C  C59  1  0.17350000  0.64060000  0.09669000  1
  C  C60  1  0.34170000  0.62140000  0.61797000  1
  C  C61  1  0.27970000  0.62140000  0.11797000  1
  C  C62  1  0.74250000  0.59900000  0.48115000  1
  C  C63  1  0.85650000  0.59900000  0.98115000  1
  C  C64  1  0.31440000  0.58400000  0.35831000  1
  C  C65  1  0.26960000  0.58400000  0.85831000  1
  C  C66  1  0.68560000  0.41600000  0.64169000  1
  C  C67  1  0.73040000  0.41600000  0.14169000  1
  C  C68  1  0.25750000  0.40100000  0.51885000  1
  C  C69  1  0.14350000  0.40100000  0.01885000  1
  C  C70  1  0.65830000  0.37860000  0.38203000  1
  C  C71  1  0.72030000  0.37860000  0.88203000  1
  C  C72  1  0.53290000  0.35940000  0.40331000  1
  C  C73  1  0.82650000  0.35940000  0.90331000  1
  C  C74  1  0.28310000  0.34960000  0.18748000  1
  C  C75  1  0.06650000  0.34960000  0.68748000  1
  C  C76  1  0.45628333  0.33336667  0.86151000  1
  C  C77  1  0.87708333  0.33336667  0.36151000  1
  C  C78  1  0.18770000  0.33080000  0.74886000  1
  C  C79  1  0.14310000  0.33080000  0.24886000  1
  C  C80  1  0.29040000  0.32860000  0.14913000  1
  C  C81  1  0.03820000  0.32860000  0.64913000  1
  C  C82  1  0.53080000  0.31880000  0.58380000  1
  C  C83  1  0.78800000  0.31880000  0.08380000  1
  C  C84  1  0.57110000  0.31700000  0.88583000  1
  C  C85  1  0.74590000  0.31700000  0.38583000  1
  C  C86  1  0.59150000  0.31100000  0.61745000  1
  C  C87  1  0.71950000  0.31100000  0.11745000  1
  C  C88  1  0.15370000  0.30500000  0.70663000  1
  C  C89  1  0.15130000  0.30500000  0.20663000  1
  C  C90  1  0.25950000  0.29720000  0.44372000  1
  C  C91  1  0.03770000  0.29720000  0.94372000  1
  C  C92  1  0.16550000  0.29140000  0.00576000  1
  C  C93  1  0.12590000  0.29140000  0.50576000  1
  C  C94  1  0.28600000  0.28800000  0.06865000  1
  C  C95  1  0.00200000  0.28800000  0.56865000  1
  C  C96  1  0.49470000  0.27840000  0.42953000  1
  C  C97  1  0.78370000  0.27840000  0.92953000  1
  C  C98  1  0.16240000  0.26440000  0.12889000  1
  C  C99  1  0.10200000  0.26440000  0.62889000  1
  C  C100  1  0.23770000  0.24160000  0.02895000  1
  C  C101  1  0.00390000  0.24160000  0.52895000  1
  C  C102  1  0.13100000  0.24120000  0.46961000  1
  C  C103  1  0.11020000  0.24120000  0.96961000  1
  C  C104  1  0.21560000  0.23960000  0.68592000  1
  C  C105  1  0.02400000  0.23960000  0.18592000  1
  C  C106  1  0.52780000  0.23680000  0.91293000  1
  C  C107  1  0.70900000  0.23680000  0.41293000  1
  C  C108  1  0.44010000  0.22560000  0.56180000  1
  C  C109  1  0.78550000  0.22560000  0.06180000  1
  C  C110  1  0.18980000  0.21920000  0.64746000  1
  C  C111  1  0.02940000  0.21920000  0.14746000  1
  C  C112  1  0.58380000  0.21800000  0.43428000  1
  C  C113  1  0.63420000  0.21800000  0.93428000  1
  C  C114  1  0.56380000  0.20320000  0.62984000  1
  C  C115  1  0.63940000  0.20320000  0.12984000  1
  C  C116  1  0.25140000  0.13940000  0.01646000  1
  C  C117  1  0.88800000  0.13940000  0.51646000  1
  C  C118  1  0.11830000  0.13640000  0.95837000  1
  C  C119  1  0.01810000  0.13640000  0.45837000  1
  C  C120  1  0.40974000  0.12028000  0.57485000  1
  C  C121  1  0.71054000  0.12028000  0.07485000  1
  C  C122  1  0.47300000  0.11080000  0.60832000  1
  C  C123  1  0.63780000  0.11080000  0.10832000  1
  C  C124  1  0.34030000  0.08800000  0.04111000  1
  C  C125  1  0.74770000  0.08800000  0.54111000  1
  C  C126  1  0.18695000  0.08570000  0.98227000  1
  C  C127  1  0.89875000  0.08570000  0.48227000  1
  C  C128  1  0.05250000  0.08160000  0.91995000  1
  C  C129  1  0.02910000  0.08160000  0.41995000  1
  C  C130  1  0.21605000  0.03150000  0.52856000  1
  C  C131  1  0.81545000  0.03150000  0.02856000  1
  Cd  Cd132  1  0.76124000  0.61890000  0.17508000  1
  Cd  Cd133  1  0.85766000  0.61890000  0.67508000  1
  Cd  Cd134  1  0.23876000  0.38110000  0.82492000  1
  Cd  Cd135  1  0.14234000  0.38110000  0.32492000  1
  H  H136  1  0.96110000  0.99680000  0.08090000  1
  H  H137  1  0.03570000  0.99680000  0.58090000  1
  H  H138  1  0.63570000  0.96700000  0.97390000  1
  H  H139  1  0.33130000  0.96700000  0.47390000  1
  H  H140  1  0.54620000  0.96100000  0.38310000  1
  H  H141  1  0.41480000  0.96100000  0.88310000  1
  H  H142  1  0.71910000  0.94780000  0.93790000  1
  H  H143  1  0.22870000  0.94780000  0.43790000  1
  H  H144  1  0.72930000  0.93440000  0.49360000  1
  H  H145  1  0.20510000  0.93440000  0.99360000  1
  H  H146  1  0.83360000  0.92040000  0.46140000  1
  H  H147  1  0.08680000  0.92040000  0.96140000  1
  H  H148  1  0.87000000  0.91200000  0.58390000  1
  H  H149  1  0.04200000  0.91200000  0.08390000  1
  H  H150  1  0.88080000  0.88080000  0.09960000  1
  H  H151  1  1.00000000  0.88080000  0.59960000  1
  H  H152  1  0.56940000  0.85320000  0.94960000  1
  H  H153  1  0.28380000  0.85320000  0.44960000  1
  H  H154  1  0.44080000  0.83660000  0.54770000  1
  H  H155  1  0.39580000  0.83660000  0.04770000  1
  H  H156  1  0.76840000  0.82540000  0.36600000  1
  H  H157  1  0.05700000  0.82540000  0.86600000  1
  H  H158  1  0.41220000  0.80600000  0.84760000  1
  H  H159  1  0.39380000  0.80600000  0.34760000  1
  H  H160  1  0.57290000  0.80420000  0.08330000  1
  H  H161  1  0.23130000  0.80420000  0.58330000  1
  H  H162  1  0.72450000  0.79100000  0.30180000  1
  H  H163  1  0.06650000  0.79100000  0.80180000  1
  H  H164  1  0.59910000  0.76560000  0.46130000  1
  H  H165  1  0.16650000  0.76560000  0.96130000  1
  H  H166  1  0.63250000  0.73200000  0.92280000  1
  H  H167  1  0.09950000  0.73200000  0.42280000  1
  H  H168  1  0.77280000  0.71880000  0.58260000  1
  H  H169  1  0.94600000  0.71880000  0.08260000  1
  H  H170  1  0.61870000  0.64220000  0.86300000  1
  H  H171  1  0.02350000  0.64220000  0.36300000  1
  H  H172  1  0.68210000  0.63020000  0.92990000  1
  H  H173  1  0.94810000  0.63020000  0.42990000  1
  H  H174  1  0.69940000  0.62160000  0.55130000  1
  H  H175  1  0.92220000  0.62160000  0.05130000  1
  H  H176  1  0.44920000  0.60960000  0.42500000  1
  H  H177  1  0.16040000  0.60960000  0.92500000  1
  H  H178  1  0.63070000  0.60520000  0.79920000  1
  H  H179  1  0.97450000  0.60520000  0.29920000  1
  H  H180  1  0.71720000  0.60360000  0.45520000  1
  H  H181  1  0.88640000  0.60360000  0.95520000  1
  H  H182  1  0.52550000  0.59840000  0.60010000  1
  H  H183  1  0.07290000  0.59840000  0.10010000  1
  H  H184  1  0.65780000  0.58980000  0.49660000  1
  H  H185  1  0.93200000  0.58980000  0.99660000  1
  H  H186  1  0.31580000  0.56520000  0.63540000  1
  H  H187  1  0.24940000  0.56520000  0.13540000  1
  H  H188  1  0.76430000  0.53520000  0.98340000  1
  H  H189  1  0.77090000  0.53520000  0.48340000  1
  H  H190  1  0.23570000  0.46480000  0.01660000  1
  H  H191  1  0.22910000  0.46480000  0.51660000  1
  H  H192  1  0.68420000  0.43480000  0.36460000  1
  H  H193  1  0.75060000  0.43480000  0.86460000  1
  H  H194  1  0.34220000  0.41020000  0.50340000  1
  H  H195  1  0.06800000  0.41020000  0.00340000  1
  H  H196  1  0.47450000  0.40160000  0.39990000  1
  H  H197  1  0.92710000  0.40160000  0.89990000  1
  H  H198  1  0.28280000  0.39640000  0.54480000  1
  H  H199  1  0.11360000  0.39640000  0.04480000  1
  H  H200  1  0.36930000  0.39480000  0.20080000  1
  H  H201  1  0.02550000  0.39480000  0.70080000  1
  H  H202  1  0.55080000  0.39040000  0.57500000  1
  H  H203  1  0.83960000  0.39040000  0.07500000  1
  H  H204  1  0.30060000  0.37840000  0.44870000  1
  H  H205  1  0.07780000  0.37840000  0.94870000  1
  H  H206  1  0.31790000  0.36980000  0.07010000  1
  H  H207  1  0.05190000  0.36980000  0.57010000  1
  H  H208  1  0.38130000  0.35780000  0.13700000  1
  H  H209  1  0.97650000  0.35780000  0.63700000  1
  H  H210  1  0.22720000  0.28120000  0.41740000  1
  H  H211  1  0.05400000  0.28120000  0.91740000  1
  H  H212  1  0.36750000  0.26800000  0.07720000  1
  H  H213  1  0.90050000  0.26800000  0.57720000  1
  H  H214  1  0.40090000  0.23440000  0.53870000  1
  H  H215  1  0.83350000  0.23440000  0.03870000  1
  H  H216  1  0.27550000  0.20900000  0.69820000  1
  H  H217  1  0.93350000  0.20900000  0.19820000  1
  H  H218  1  0.42710000  0.19580000  0.91670000  1
  H  H219  1  0.76870000  0.19580000  0.41670000  1
  H  H220  1  0.58780000  0.19400000  0.15240000  1
  H  H221  1  0.60620000  0.19400000  0.65240000  1
  H  H222  1  0.23160000  0.17460000  0.63400000  1
  H  H223  1  0.94300000  0.17460000  0.13400000  1
  H  H224  1  0.55920000  0.16340000  0.45230000  1
  H  H225  1  0.60420000  0.16340000  0.95230000  1
  H  H226  1  0.43060000  0.14680000  0.05040000  1
  H  H227  1  0.71620000  0.14680000  0.55040000  1
  H  H228  1  0.11920000  0.11920000  0.90040000  1
  H  H229  1  0.00000000  0.11920000  0.40040000  1
  H  H230  1  0.13000000  0.08800000  0.41610000  1
  H  H231  1  0.95800000  0.08800000  0.91610000  1
  H  H232  1  0.16640000  0.07960000  0.53860000  1
  H  H233  1  0.91320000  0.07960000  0.03860000  1
  H  H234  1  0.27070000  0.06560000  0.50640000  1
  H  H235  1  0.79490000  0.06560000  0.00640000  1
  H  H236  1  0.28090000  0.05220000  0.06210000  1
  H  H237  1  0.77130000  0.05220000  0.56210000  1
  H  H238  1  0.45380000  0.03900000  0.61690000  1
  H  H239  1  0.58520000  0.03900000  0.11690000  1
  H  H240  1  0.36430000  0.03300000  0.02610000  1
  H  H241  1  0.66870000  0.03300000  0.52610000  1
  H  H242  1  0.03890000  0.00320000  0.91910000  1
  H  H243  1  0.96430000  0.00320000  0.41910000  1
  O  O244  1  0.68261000  0.97842000  0.44336000  1
  O  O245  1  0.29581000  0.97842000  0.94336000  1
  O  O246  1  0.84490000  0.76380000  0.90888000  1
  O  O247  1  0.91890000  0.76380000  0.40888000  1
  O  O248  1  0.62991000  0.75102000  0.54788000  1
  O  O249  1  0.12111000  0.75102000  0.04788000  1
  O  O250  1  0.75900000  0.72760000  0.23377000  1
  O  O251  1  0.96860000  0.72760000  0.73377000  1
  O  O252  1  0.67912000  0.71444000  0.13174000  1
  O  O253  1  0.03532000  0.71444000  0.63174000  1
  O  O254  1  0.50306000  0.60332000  0.16675000  1
  O  O255  1  0.10026000  0.60332000  0.66675000  1
  O  O256  1  0.34246000  0.59212000  0.82943000  1
  O  O257  1  0.24966000  0.59212000  0.32943000  1
  O  O258  1  0.74962000  0.59124000  0.73549000  1
  O  O259  1  0.84162000  0.59124000  0.23549000  1
  O  O260  1  0.69438000  0.51076000  0.63012000  1
  O  O261  1  0.81638000  0.51076000  0.13012000  1
  O  O262  1  0.30562000  0.48924000  0.36988000  1
  O  O263  1  0.18362000  0.48924000  0.86988000  1
  O  O264  1  0.25038000  0.40876000  0.26451000  1
  O  O265  1  0.15838000  0.40876000  0.76451000  1
  O  O266  1  0.65754000  0.40788000  0.17057000  1
  O  O267  1  0.75034000  0.40788000  0.67057000  1
  O  O268  1  0.49694000  0.39668000  0.83325000  1
  O  O269  1  0.89974000  0.39668000  0.33325000  1
  O  O270  1  0.32088000  0.28556000  0.86826000  1
  O  O271  1  0.96468000  0.28556000  0.36826000  1
  O  O272  1  0.24100000  0.27240000  0.76623000  1
  O  O273  1  0.03140000  0.27240000  0.26623000  1
  O  O274  1  0.37009000  0.24898000  0.45212000  1
  O  O275  1  0.87889000  0.24898000  0.95212000  1
  O  O276  1  0.15510000  0.23620000  0.09112000  1
  O  O277  1  0.08110000  0.23620000  0.59112000  1
  O  O278  1  0.31739000  0.02158000  0.55664000  1
  O  O279  1  0.70419000  0.02158000  0.05664000  1
