# generated using pymatgen
data_EuH2C5O6
_symmetry_space_group_name_H-M   'P 1'
_cell_length_a   9.11760000
_cell_length_b   9.11760000
_cell_length_c   14.54238424
_cell_angle_alpha   100.21351053
_cell_angle_beta   100.21341053
_cell_angle_gamma   115.74500000
_symmetry_Int_Tables_number   1
_chemical_formula_structural   EuH2C5O6
_chemical_formula_sum   'Eu4 H8 C20 O24'
_cell_volume   1026.60515868
_cell_formula_units_Z   4
loop_
 _symmetry_equiv_pos_site_id
 _symmetry_equiv_pos_as_xyz
  1  'x, y, z'
loop_
 _atom_site_type_symbol
 _atom_site_label
 _atom_site_symmetry_multiplicity
 _atom_site_fract_x
 _atom_site_fract_y
 _atom_site_fract_z
 _atom_site_occupancy
  Eu  Eu0  1  0.99051000  0.74051000  0.98102000  1
  Eu  Eu1  1  0.75949000  0.50949000  0.51898000  1
  Eu  Eu2  1  0.24051000  0.49051000  0.48102000  1
  Eu  Eu3  1  0.00949000  0.25949000  0.01898000  1
  H  H4  1  0.62320000  0.04760000  0.43340000  1
  H  H5  1  0.81020000  0.88580000  0.43340000  1
  H  H6  1  0.45240000  0.87680000  0.06660000  1
  H  H7  1  0.38580000  0.31020000  0.93340000  1
  H  H8  1  0.61420000  0.68980000  0.06660000  1
  H  H9  1  0.54760000  0.12320000  0.93340000  1
  H  H10  1  0.18980000  0.11420000  0.56660000  1
  H  H11  1  0.37680000  0.95240000  0.56660000  1
  C  C12  1  0.82540000  0.67460000  0.75000000  1
  C  C13  1  0.56437000  0.74597000  0.44154000  1
  C  C14  1  0.92460000  0.57540000  0.75000000  1
  C  C15  1  0.30443000  0.62283000  0.05846000  1
  C  C16  1  0.71420000  0.89660000  0.43660000  1
  C  C17  1  0.72240000  0.04000000  0.43660000  1
  C  C18  1  0.24597000  0.06437000  0.94154000  1
  C  C19  1  0.46000000  0.77760000  0.06340000  1
  C  C20  1  0.87717000  0.19557000  0.44154000  1
  C  C21  1  0.39660000  0.21420000  0.93660000  1
  C  C22  1  0.60340000  0.78580000  0.06340000  1
  C  C23  1  0.12283000  0.80443000  0.55846000  1
  C  C24  1  0.54000000  0.22240000  0.93660000  1
  C  C25  1  0.75403000  0.93563000  0.05846000  1
  C  C26  1  0.27760000  0.96000000  0.56340000  1
  C  C27  1  0.28580000  0.10340000  0.56340000  1
  C  C28  1  0.69557000  0.37717000  0.94154000  1
  C  C29  1  0.07540000  0.42460000  0.25000000  1
  C  C30  1  0.43563000  0.25403000  0.55846000  1
  C  C31  1  0.17460000  0.32540000  0.25000000  1
  O  O32  1  0.58167000  0.26767000  0.57574000  1
  O  O33  1  0.83960000  0.76200000  0.83080000  1
  O  O34  1  0.73800000  0.66040000  0.66920000  1
  O  O35  1  0.59125000  0.63405000  0.46710000  1
  O  O36  1  0.16695000  0.62415000  0.03290000  1
  O  O37  1  0.99120000  0.56880000  0.83080000  1
  O  O38  1  0.13405000  0.09125000  0.96710000  1
  O  O39  1  0.30807000  0.49407000  0.07574000  1
  O  O40  1  0.93120000  0.50880000  0.66920000  1
  O  O41  1  0.23233000  0.91833000  0.92426000  1
  O  O42  1  0.87585000  0.33305000  0.46710000  1
  O  O43  1  0.99407000  0.80807000  0.57574000  1
  O  O44  1  0.00593000  0.19193000  0.42426000  1
  O  O45  1  0.12415000  0.66695000  0.53290000  1
  O  O46  1  0.76767000  0.08167000  0.07574000  1
  O  O47  1  0.06880000  0.49120000  0.33080000  1
  O  O48  1  0.69193000  0.50593000  0.92426000  1
  O  O49  1  0.86595000  0.90875000  0.03290000  1
  O  O50  1  0.00880000  0.43120000  0.16920000  1
  O  O51  1  0.83305000  0.37585000  0.96710000  1
  O  O52  1  0.40875000  0.36595000  0.53290000  1
  O  O53  1  0.26200000  0.33960000  0.33080000  1
  O  O54  1  0.16040000  0.23800000  0.16920000  1
  O  O55  1  0.41833000  0.73233000  0.42426000  1
