# generated using pymatgen
data_Dy2H6(C6O5)3
_symmetry_space_group_name_H-M   'P 1'
_cell_length_a   8.63260000
_cell_length_b   15.34620000
_cell_length_c   28.12060000
_cell_angle_alpha   90.00000000
_cell_angle_beta   90.00000000
_cell_angle_gamma   90.00000000
_symmetry_Int_Tables_number   1
_chemical_formula_structural   Dy2H6(C6O5)3
_chemical_formula_sum   'Dy8 H24 C72 O60'
_cell_volume   3725.34977066
_cell_formula_units_Z   4
loop_
 _symmetry_equiv_pos_site_id
 _symmetry_equiv_pos_as_xyz
  1  'x, y, z'
loop_
 _atom_site_type_symbol
 _atom_site_label
 _atom_site_symmetry_multiplicity
 _atom_site_fract_x
 _atom_site_fract_y
 _atom_site_fract_z
 _atom_site_occupancy
  Dy  Dy0  1  0.94761000  0.20205000  0.91328000  1
  Dy  Dy1  1  0.94761000  0.20205000  0.58672000  1
  Dy  Dy2  1  0.55239000  0.70205000  0.41328000  1
  Dy  Dy3  1  0.55239000  0.70205000  0.08672000  1
  Dy  Dy4  1  0.44761000  0.29795000  0.91328000  1
  Dy  Dy5  1  0.44761000  0.29795000  0.58672000  1
  Dy  Dy6  1  0.05239000  0.79795000  0.41328000  1
  Dy  Dy7  1  0.05239000  0.79795000  0.08672000  1
  H  H8  1  0.91480000  0.51340000  0.40420000  1
  H  H9  1  0.91480000  0.51340000  0.09580000  1
  H  H10  1  0.88610000  0.37580000  0.45010000  1
  H  H11  1  0.88610000  0.37580000  0.04990000  1
  H  H12  1  0.84420000  0.09400000  0.79520000  1
  H  H13  1  0.84420000  0.09400000  0.70480000  1
  H  H14  1  0.65580000  0.59400000  0.29520000  1
  H  H15  1  0.65580000  0.59400000  0.20480000  1
  H  H16  1  0.61390000  0.87580000  0.95010000  1
  H  H17  1  0.61390000  0.87580000  0.54990000  1
  H  H18  1  0.58520000  0.01340000  0.90420000  1
  H  H19  1  0.58520000  0.01340000  0.59580000  1
  H  H20  1  0.41480000  0.98660000  0.40420000  1
  H  H21  1  0.41480000  0.98660000  0.09580000  1
  H  H22  1  0.38610000  0.12420000  0.45010000  1
  H  H23  1  0.38610000  0.12420000  0.04990000  1
  H  H24  1  0.34420000  0.40600000  0.79520000  1
  H  H25  1  0.34420000  0.40600000  0.70480000  1
  H  H26  1  0.15580000  0.90600000  0.29520000  1
  H  H27  1  0.15580000  0.90600000  0.20480000  1
  H  H28  1  0.11390000  0.62420000  0.95010000  1
  H  H29  1  0.11390000  0.62420000  0.54990000  1
  H  H30  1  0.08520000  0.48660000  0.90420000  1
  H  H31  1  0.08520000  0.48660000  0.59580000  1
  C  C32  1  0.98840000  0.48910000  0.42430000  1
  C  C33  1  0.98840000  0.48910000  0.07570000  1
  C  C34  1  0.97190000  0.41240000  0.45010000  1
  C  C35  1  0.97190000  0.41240000  0.04990000  1
  C  C36  1  0.89870000  0.59890000  0.97450000  1
  C  C37  1  0.89870000  0.59890000  0.52550000  1
  C  C38  1  0.86920000  0.47780000  0.93380000  1
  C  C39  1  0.86920000  0.47780000  0.56620000  1
  C  C40  1  0.85280000  0.66470000  0.48950000  1
  C  C41  1  0.85280000  0.66470000  0.01050000  1
  C  C42  1  0.85120000  0.72990000  0.33540000  1
  C  C43  1  0.85120000  0.72990000  0.16460000  1
  C  C44  1  0.80540000  0.69620000  0.28880000  1
  C  C45  1  0.80540000  0.69620000  0.21120000  1
  C  C46  1  0.79640000  0.39470000  0.92180000  1
  C  C47  1  0.79640000  0.39470000  0.57820000  1
  C  C48  1  0.78940000  0.13150000  0.77540000  1
  C  C49  1  0.78940000  0.13150000  0.72460000  1
  C  C50  1  0.71060000  0.63150000  0.27540000  1
  C  C51  1  0.71060000  0.63150000  0.22460000  1
  C  C52  1  0.70360000  0.89470000  0.42180000  1
  C  C53  1  0.70360000  0.89470000  0.07820000  1
  C  C54  1  0.69460000  0.19620000  0.78880000  1
  C  C55  1  0.69460000  0.19620000  0.71120000  1
  C  C56  1  0.64880000  0.22990000  0.83540000  1
  C  C57  1  0.64880000  0.22990000  0.66460000  1
  C  C58  1  0.64720000  0.16470000  0.98950000  1
  C  C59  1  0.64720000  0.16470000  0.51050000  1
  C  C60  1  0.63080000  0.97780000  0.43380000  1
  C  C61  1  0.63080000  0.97780000  0.06620000  1
  C  C62  1  0.60130000  0.09890000  0.47450000  1
  C  C63  1  0.60130000  0.09890000  0.02550000  1
  C  C64  1  0.52810000  0.91240000  0.95010000  1
  C  C65  1  0.52810000  0.91240000  0.54990000  1
  C  C66  1  0.51160000  0.98910000  0.92430000  1
  C  C67  1  0.51160000  0.98910000  0.57570000  1
  C  C68  1  0.48840000  0.01090000  0.42430000  1
  C  C69  1  0.48840000  0.01090000  0.07570000  1
  C  C70  1  0.47190000  0.08760000  0.45010000  1
  C  C71  1  0.47190000  0.08760000  0.04990000  1
  C  C72  1  0.39870000  0.90110000  0.97450000  1
  C  C73  1  0.39870000  0.90110000  0.52550000  1
  C  C74  1  0.36920000  0.02220000  0.93380000  1
  C  C75  1  0.36920000  0.02220000  0.56620000  1
  C  C76  1  0.35280000  0.83530000  0.48950000  1
  C  C77  1  0.35280000  0.83530000  0.01050000  1
  C  C78  1  0.35120000  0.77010000  0.33540000  1
  C  C79  1  0.35120000  0.77010000  0.16460000  1
  C  C80  1  0.30540000  0.80380000  0.28880000  1
  C  C81  1  0.30540000  0.80380000  0.21120000  1
  C  C82  1  0.29640000  0.10530000  0.92180000  1
  C  C83  1  0.29640000  0.10530000  0.57820000  1
  C  C84  1  0.28940000  0.36850000  0.77540000  1
  C  C85  1  0.28940000  0.36850000  0.72460000  1
  C  C86  1  0.21060000  0.86850000  0.27540000  1
  C  C87  1  0.21060000  0.86850000  0.22460000  1
  C  C88  1  0.20360000  0.60530000  0.42180000  1
  C  C89  1  0.20360000  0.60530000  0.07820000  1
  C  C90  1  0.19460000  0.30380000  0.78880000  1
  C  C91  1  0.19460000  0.30380000  0.71120000  1
  C  C92  1  0.14880000  0.27010000  0.83540000  1
  C  C93  1  0.14880000  0.27010000  0.66460000  1
  C  C94  1  0.14720000  0.33530000  0.98950000  1
  C  C95  1  0.14720000  0.33530000  0.51050000  1
  C  C96  1  0.13080000  0.52220000  0.43380000  1
  C  C97  1  0.13080000  0.52220000  0.06620000  1
  C  C98  1  0.10130000  0.40110000  0.47450000  1
  C  C99  1  0.10130000  0.40110000  0.02550000  1
  C  C100  1  0.02810000  0.58760000  0.95010000  1
  C  C101  1  0.02810000  0.58760000  0.54990000  1
  C  C102  1  0.01160000  0.51090000  0.92430000  1
  C  C103  1  0.01160000  0.51090000  0.57570000  1
  O  O104  1  0.95590000  0.71720000  0.47730000  1
  O  O105  1  0.95590000  0.71720000  0.02270000  1
  O  O106  1  0.95100000  0.78950000  0.33680000  1
  O  O107  1  0.95100000  0.78950000  0.16320000  1
  O  O108  1  0.87360000  0.34490000  0.89700000  1
  O  O109  1  0.87360000  0.34490000  0.60300000  1
  O  O110  1  0.86520000  0.73750000  0.25000000  1
  O  O111  1  0.83840000  0.88050000  0.43740000  1
  O  O112  1  0.83840000  0.88050000  0.06260000  1
  O  O113  1  0.79490000  0.53260000  0.96592000  1
  O  O114  1  0.79490000  0.53260000  0.53408000  1
  O  O115  1  0.79330000  0.69550000  0.37164000  1
  O  O116  1  0.79330000  0.69550000  0.12836000  1
  O  O117  1  0.78460000  0.16190000  0.97331000  1
  O  O118  1  0.78460000  0.16190000  0.52669000  1
  O  O119  1  0.71540000  0.66190000  0.47331000  1
  O  O120  1  0.71540000  0.66190000  0.02669000  1
  O  O121  1  0.70670000  0.19550000  0.87164000  1
  O  O122  1  0.70670000  0.19550000  0.62836000  1
  O  O123  1  0.70510000  0.03260000  0.46592000  1
  O  O124  1  0.70510000  0.03260000  0.03408000  1
  O  O125  1  0.66160000  0.38050000  0.93740000  1
  O  O126  1  0.66160000  0.38050000  0.56260000  1
  O  O127  1  0.63480000  0.23750000  0.75000000  1
  O  O128  1  0.62640000  0.84490000  0.39700000  1
  O  O129  1  0.62640000  0.84490000  0.10300000  1
  O  O130  1  0.54900000  0.28950000  0.83680000  1
  O  O131  1  0.54900000  0.28950000  0.66320000  1
  O  O132  1  0.54410000  0.21720000  0.97730000  1
  O  O133  1  0.54410000  0.21720000  0.52270000  1
  O  O134  1  0.45590000  0.78280000  0.47730000  1
  O  O135  1  0.45590000  0.78280000  0.02270000  1
  O  O136  1  0.45100000  0.71050000  0.33680000  1
  O  O137  1  0.45100000  0.71050000  0.16320000  1
  O  O138  1  0.37360000  0.15510000  0.89700000  1
  O  O139  1  0.37360000  0.15510000  0.60300000  1
  O  O140  1  0.36520000  0.76250000  0.25000000  1
  O  O141  1  0.33840000  0.61950000  0.43740000  1
  O  O142  1  0.33840000  0.61950000  0.06260000  1
  O  O143  1  0.29490000  0.96740000  0.96592000  1
  O  O144  1  0.29490000  0.96740000  0.53408000  1
  O  O145  1  0.29330000  0.80450000  0.37164000  1
  O  O146  1  0.29330000  0.80450000  0.12836000  1
  O  O147  1  0.28460000  0.33810000  0.97331000  1
  O  O148  1  0.28460000  0.33810000  0.52669000  1
  O  O149  1  0.21540000  0.83810000  0.47331000  1
  O  O150  1  0.21540000  0.83810000  0.02669000  1
  O  O151  1  0.20670000  0.30450000  0.87164000  1
  O  O152  1  0.20670000  0.30450000  0.62836000  1
  O  O153  1  0.20510000  0.46740000  0.46592000  1
  O  O154  1  0.20510000  0.46740000  0.03408000  1
  O  O155  1  0.16160000  0.11950000  0.93740000  1
  O  O156  1  0.16160000  0.11950000  0.56260000  1
  O  O157  1  0.13480000  0.26250000  0.75000000  1
  O  O158  1  0.12640000  0.65510000  0.39700000  1
  O  O159  1  0.12640000  0.65510000  0.10300000  1
  O  O160  1  0.04900000  0.21050000  0.83680000  1
  O  O161  1  0.04900000  0.21050000  0.66320000  1
  O  O162  1  0.04410000  0.28280000  0.97730000  1
  O  O163  1  0.04410000  0.28280000  0.52270000  1
