# generated using pymatgen
data_Zn2CoH6C18O13
_symmetry_space_group_name_H-M   'P 1'
_cell_length_a   17.01257911
_cell_length_b   17.01257911
_cell_length_c   17.01257911
_cell_angle_alpha   105.86858940
_cell_angle_beta   105.86858940
_cell_angle_gamma   116.94507377
_symmetry_Int_Tables_number   1
_chemical_formula_structural   Zn2CoH6C18O13
_chemical_formula_sum   'Zn8 Co4 H24 C72 O52'
_cell_volume   3741.46245734
_cell_formula_units_Z   4
loop_
 _symmetry_equiv_pos_site_id
 _symmetry_equiv_pos_as_xyz
  1  'x, y, z'
loop_
 _atom_site_type_symbol
 _atom_site_label
 _atom_site_symmetry_multiplicity
 _atom_site_fract_x
 _atom_site_fract_y
 _atom_site_fract_z
 _atom_site_occupancy
  C  C0  1  0.42490000  0.10960000  0.72910000  1
  C  C1  1  0.92490000  0.19580000  0.31530000  1
  C  C2  1  0.98270000  0.66960000  0.76430000  1
  C  C3  1  0.48270000  0.71840000  0.31310000  1
  C  C4  1  0.06230000  0.73120000  0.75390000  1
  C  C5  1  0.56230000  0.80840000  0.33110000  1
  C  C6  1  0.99920000  0.66950000  0.84910000  1
  C  C7  1  0.49920000  0.65010000  0.32970000  1
  C  C8  1  0.15710000  0.79920000  0.83190000  1
  C  C9  1  0.65710000  0.82520000  0.35790000  1
  C  C10  1  0.24090000  0.87270000  0.82260000  1
  C  C11  1  0.74090000  0.91830000  0.36820000  1
  C  C12  1  0.09130000  0.73120000  0.92510000  1
  C  C13  1  0.59130000  0.66620000  0.36010000  1
  C  C14  1  0.16880000  0.79810000  0.91590000  1
  C  C15  1  0.66880000  0.75290000  0.37070000  1
  C  C16  1  0.59250000  0.21540000  0.98550000  1
  C  C17  1  0.09250000  0.10700000  0.37710000  1
  C  C18  1  0.10700000  0.72990000  0.01450000  1
  C  C19  1  0.60700000  0.59250000  0.37710000  1
  C  C20  1  0.60960000  0.92490000  0.72910000  1
  C  C21  1  0.10960000  0.38050000  0.68470000  1
  C  C22  1  0.23120000  0.56230000  0.75390000  1
  C  C23  1  0.73120000  0.97730000  0.66890000  1
  C  C24  1  0.66620000  0.30610000  0.07490000  1
  C  C25  1  0.16620000  0.09130000  0.36010000  1
  C  C26  1  0.16960000  0.48270000  0.76430000  1
  C  C27  1  0.66960000  0.90530000  0.68690000  1
  C  C28  1  0.37270000  0.74090000  0.82260000  1
  C  C29  1  0.87270000  0.05010000  0.63180000  1
  C  C30  1  0.75290000  0.38220000  0.08410000  1
  C  C31  1  0.25290000  0.16880000  0.37070000  1
  C  C32  1  0.29920000  0.65710000  0.83190000  1
  C  C33  1  0.79920000  0.96730000  0.64210000  1
  C  C34  1  0.65010000  0.32040000  0.15090000  1
  C  C35  1  0.15010000  0.99920000  0.32970000  1
  C  C36  1  0.16950000  0.49920000  0.84910000  1
  C  C37  1  0.66950000  0.82040000  0.67030000  1
  C  C38  1  0.82520000  0.46730000  0.16810000  1
  C  C39  1  0.32520000  0.15710000  0.35790000  1
  C  C40  1  0.29810000  0.66880000  0.91590000  1
  C  C41  1  0.79810000  0.88220000  0.62930000  1
  C  C42  1  0.91830000  0.55010000  0.17740000  1
  C  C43  1  0.41830000  0.24090000  0.36820000  1
  C  C44  1  0.71840000  0.40530000  0.23570000  1
  C  C45  1  0.21840000  0.98270000  0.31310000  1
  C  C46  1  0.23120000  0.59130000  0.92510000  1
  C  C47  1  0.73120000  0.80610000  0.63990000  1
  C  C48  1  0.80840000  0.47730000  0.24610000  1
  C  C49  1  0.30840000  0.06230000  0.33110000  1
  C  C50  1  0.19580000  0.88050000  0.27090000  1
  C  C51  1  0.69580000  0.42490000  0.31530000  1
  C  C52  1  0.71540000  0.09250000  0.98550000  1
  C  C53  1  0.21540000  0.22990000  0.62290000  1
  C  C54  1  0.22990000  0.60700000  0.01450000  1
  C  C55  1  0.72990000  0.71540000  0.62290000  1
  C  C56  1  0.88220000  0.25290000  0.08410000  1
  C  C57  1  0.38220000  0.29810000  0.62930000  1
  C  C58  1  0.80610000  0.16620000  0.07490000  1
  C  C59  1  0.30610000  0.23120000  0.63990000  1
  C  C60  1  0.05010000  0.41830000  0.17740000  1
  C  C61  1  0.55010000  0.37270000  0.63180000  1
  C  C62  1  0.96730000  0.32520000  0.16810000  1
  C  C63  1  0.46730000  0.29920000  0.64210000  1
  C  C64  1  0.82040000  0.15010000  0.15090000  1
  C  C65  1  0.32040000  0.16950000  0.67030000  1
  C  C66  1  0.97730000  0.30840000  0.24610000  1
  C  C67  1  0.47730000  0.23120000  0.66890000  1
  C  C68  1  0.90530000  0.21840000  0.23570000  1
  C  C69  1  0.40530000  0.16960000  0.68690000  1
  C  C70  1  0.38050000  0.69580000  0.27090000  1
  C  C71  1  0.88050000  0.60960000  0.68470000  1
  Co  Co72  1  0.59674000  0.09674000  0.81636000  1
  Co  Co73  1  0.09674000  0.28038000  0.50000000  1
  Co  Co74  1  0.28038000  0.78038000  0.18364000  1
  Co  Co75  1  0.78038000  0.59674000  0.50000000  1
  H  H76  1  0.05340000  0.72800000  0.69520000  1
  H  H77  1  0.55340000  0.85820000  0.32540000  1
  H  H78  1  0.94440000  0.62480000  0.85460000  1
  H  H79  1  0.44440000  0.58980000  0.31960000  1
  H  H80  1  0.23210000  0.84490000  0.96860000  1
  H  H81  1  0.73210000  0.76350000  0.38720000  1
  H  H82  1  0.22800000  0.55340000  0.69520000  1
  H  H83  1  0.72800000  0.03280000  0.67460000  1
  H  H84  1  0.76350000  0.37630000  0.03140000  1
  H  H85  1  0.26350000  0.23210000  0.38720000  1
  H  H86  1  0.58980000  0.27020000  0.14540000  1
  H  H87  1  0.08980000  0.94440000  0.31960000  1
  H  H88  1  0.12480000  0.44440000  0.85460000  1
  H  H89  1  0.62480000  0.77020000  0.68040000  1
  H  H90  1  0.34490000  0.73210000  0.96860000  1
  H  H91  1  0.84490000  0.87630000  0.61280000  1
  H  H92  1  0.85820000  0.53280000  0.30480000  1
  H  H93  1  0.35820000  0.05340000  0.32540000  1
  H  H94  1  0.87630000  0.26350000  0.03140000  1
  H  H95  1  0.37630000  0.34490000  0.61280000  1
  H  H96  1  0.77020000  0.08980000  0.14540000  1
  H  H97  1  0.27020000  0.12480000  0.68040000  1
  H  H98  1  0.03280000  0.35820000  0.30480000  1
  H  H99  1  0.53280000  0.22800000  0.67460000  1
  O  O100  1  0.37750000  0.08210000  0.77400000  1
  O  O101  1  0.87750000  0.10350000  0.29540000  1
  O  O102  1  0.48783000  0.09439000  0.72042000  1
  O  O103  1  0.98783000  0.26741000  0.39344000  1
  O  O104  1  0.23260000  0.85830000  0.74370000  1
  O  O105  1  0.73260000  0.98890000  0.37430000  1
  O  O106  1  0.31680000  0.94960000  0.89740000  1
  O  O107  1  0.81680000  0.91940000  0.36720000  1
  O  O108  1  0.61080000  0.21080000  0.91980000  1
  O  O109  1  0.11080000  0.19100000  0.40000000  1
  O  O110  1  0.48187000  0.98187000  0.82474000  1
  O  O111  1  0.98187000  0.15713000  0.50000000  1
  O  O112  1  0.59439000  0.98783000  0.72042000  1
  O  O113  1  0.09439000  0.37397000  0.60656000  1
  O  O114  1  0.51160000  0.15090000  0.98310000  1
  O  O115  1  0.01160000  0.02850000  0.36070000  1
  O  O116  1  0.35830000  0.73260000  0.74370000  1
  O  O117  1  0.85830000  0.11460000  0.62570000  1
  O  O118  1  0.02850000  0.66780000  0.01690000  1
  O  O119  1  0.52850000  0.51160000  0.36070000  1
  O  O120  1  0.91940000  0.55220000  0.10260000  1
  O  O121  1  0.41940000  0.31680000  0.36720000  1
  O  O122  1  0.58210000  0.87750000  0.77400000  1
  O  O123  1  0.08210000  0.30810000  0.70460000  1
  O  O124  1  0.19100000  0.79100000  0.08020000  1
  O  O125  1  0.69100000  0.61080000  0.40000000  1
  O  O126  1  0.71080000  0.11080000  0.91980000  1
  O  O127  1  0.21080000  0.29100000  0.60000000  1
  O  O128  1  0.10350000  0.80810000  0.22600000  1
  O  O129  1  0.60350000  0.37750000  0.29540000  1
  O  O130  1  0.44960000  0.81680000  0.89740000  1
  O  O131  1  0.94960000  0.05220000  0.63280000  1
  O  O132  1  0.65090000  0.01160000  0.98310000  1
  O  O133  1  0.15090000  0.16780000  0.63930000  1
  O  O134  1  0.98890000  0.61460000  0.25630000  1
  O  O135  1  0.48890000  0.23260000  0.37430000  1
  O  O136  1  0.16780000  0.52850000  0.01690000  1
  O  O137  1  0.66780000  0.65090000  0.63930000  1
  O  O138  1  0.26741000  0.87397000  0.27958000  1
  O  O139  1  0.76741000  0.48783000  0.39344000  1
  O  O140  1  0.15713000  0.65713000  0.17526000  1
  O  O141  1  0.65713000  0.48187000  0.50000000  1
  O  O142  1  0.29100000  0.69100000  0.08020000  1
  O  O143  1  0.79100000  0.71080000  0.60000000  1
  O  O144  1  0.05220000  0.41940000  0.10260000  1
  O  O145  1  0.55220000  0.44960000  0.63280000  1
  O  O146  1  0.11460000  0.48890000  0.25630000  1
  O  O147  1  0.61460000  0.35830000  0.62570000  1
  O  O148  1  0.37397000  0.76741000  0.27958000  1
  O  O149  1  0.87397000  0.59439000  0.60656000  1
  O  O150  1  0.30810000  0.60350000  0.22600000  1
  O  O151  1  0.80810000  0.58210000  0.70460000  1
  Zn  Zn152  1  0.40899000  0.03268000  0.86213000  1
  Zn  Zn153  1  0.90899000  0.04686000  0.37631000  1
  Zn  Zn154  1  0.53268000  0.90899000  0.86213000  1
  Zn  Zn155  1  0.03268000  0.17055000  0.62369000  1
  Zn  Zn156  1  0.04686000  0.67055000  0.13787000  1
  Zn  Zn157  1  0.54686000  0.40899000  0.37631000  1
  Zn  Zn158  1  0.17055000  0.54686000  0.13787000  1
  Zn  Zn159  1  0.67055000  0.53268000  0.62369000  1
