# generated using pymatgen
data_CuH3C13O4
_symmetry_space_group_name_H-M   'P 1'
_cell_length_a   16.76512723
_cell_length_b   16.76512723
_cell_length_c   16.76512723
_cell_angle_alpha   67.19852510
_cell_angle_beta   67.19852510
_cell_angle_gamma   67.19852510
_symmetry_Int_Tables_number   1
_chemical_formula_structural   CuH3C13O4
_chemical_formula_sum   'Cu6 H18 C78 O24'
_cell_volume   3845.09942000
_cell_formula_units_Z   6
loop_
 _symmetry_equiv_pos_site_id
 _symmetry_equiv_pos_as_xyz
  1  'x, y, z'
loop_
 _atom_site_type_symbol
 _atom_site_label
 _atom_site_symmetry_multiplicity
 _atom_site_fract_x
 _atom_site_fract_y
 _atom_site_fract_z
 _atom_site_occupancy
  C  C0  1  0.48885000  0.95365000  0.95365000  1
  C  C1  1  0.33333000  0.51993000  0.06463000  1
  C  C2  1  0.33333000  0.06463000  0.51993000  1
  C  C3  1  0.56360000  0.95990000  0.04630000  1
  C  C4  1  0.56360000  0.04630000  0.95990000  1
  C  C5  1  0.48040000  0.90215000  0.90215000  1
  C  C6  1  0.76351000  0.89371000  0.47541000  1
  C  C7  1  0.76351000  0.47541000  0.89371000  1
  C  C8  1  0.55250000  0.91170000  0.00260000  1
  C  C9  1  0.55250000  0.00260000  0.91170000  1
  C  C10  1  0.47856000  0.81316000  0.94216000  1
  C  C11  1  0.47856000  0.94216000  0.81316000  1
  C  C12  1  0.81316000  0.94216000  0.47856000  1
  C  C13  1  0.81316000  0.47856000  0.94216000  1
  C  C14  1  0.91170000  0.00260000  0.55250000  1
  C  C15  1  0.91170000  0.55250000  0.00260000  1
  C  C16  1  0.06463000  0.33333000  0.51993000  1
  C  C17  1  0.06463000  0.51993000  0.33333000  1
  C  C18  1  0.47541000  0.76351000  0.89371000  1
  C  C19  1  0.47541000  0.89371000  0.76351000  1
  C  C20  1  0.95990000  0.04630000  0.56360000  1
  C  C21  1  0.95990000  0.56360000  0.04630000  1
  C  C22  1  0.80555000  0.80555000  0.47245000  1
  C  C23  1  0.80555000  0.47245000  0.80555000  1
  C  C24  1  0.47245000  0.80555000  0.80555000  1
  C  C25  1  0.48007000  0.66667000  0.93537000  1
  C  C26  1  0.48007000  0.93537000  0.66667000  1
  C  C27  1  0.05784000  0.18684000  0.52144000  1
  C  C28  1  0.05784000  0.52144000  0.18684000  1
  C  C29  1  0.90215000  0.90215000  0.48040000  1
  C  C30  1  0.90215000  0.48040000  0.90215000  1
  C  C31  1  0.95370000  0.04010000  0.43640000  1
  C  C32  1  0.95370000  0.43640000  0.04010000  1
  C  C33  1  0.10629000  0.23649000  0.52459000  1
  C  C34  1  0.10629000  0.52459000  0.23649000  1
  C  C35  1  0.99740000  0.08830000  0.44750000  1
  C  C36  1  0.99740000  0.44750000  0.08830000  1
  C  C37  1  0.95365000  0.95365000  0.48885000  1
  C  C38  1  0.95365000  0.48885000  0.95365000  1
  C  C39  1  0.04635000  0.04635000  0.51115000  1
  C  C40  1  0.04635000  0.51115000  0.04635000  1
  C  C41  1  0.00260000  0.91170000  0.55250000  1
  C  C42  1  0.00260000  0.55250000  0.91170000  1
  C  C43  1  0.89371000  0.76351000  0.47541000  1
  C  C44  1  0.89371000  0.47541000  0.76351000  1
  C  C45  1  0.04630000  0.95990000  0.56360000  1
  C  C46  1  0.04630000  0.56360000  0.95990000  1
  C  C47  1  0.09785000  0.09785000  0.51960000  1
  C  C48  1  0.09785000  0.51960000  0.09785000  1
  C  C49  1  0.94216000  0.81316000  0.47856000  1
  C  C50  1  0.94216000  0.47856000  0.81316000  1
  C  C51  1  0.51993000  0.33333000  0.06463000  1
  C  C52  1  0.51993000  0.06463000  0.33333000  1
  C  C53  1  0.52755000  0.19445000  0.19445000  1
  C  C54  1  0.19445000  0.19445000  0.52755000  1
  C  C55  1  0.19445000  0.52755000  0.19445000  1
  C  C56  1  0.04010000  0.95370000  0.43640000  1
  C  C57  1  0.04010000  0.43640000  0.95370000  1
  C  C58  1  0.52459000  0.10629000  0.23649000  1
  C  C59  1  0.52459000  0.23649000  0.10629000  1
  C  C60  1  0.93537000  0.48007000  0.66667000  1
  C  C61  1  0.93537000  0.66667000  0.48007000  1
  C  C62  1  0.08830000  0.99740000  0.44750000  1
  C  C63  1  0.08830000  0.44750000  0.99740000  1
  C  C64  1  0.18684000  0.05784000  0.52144000  1
  C  C65  1  0.18684000  0.52144000  0.05784000  1
  C  C66  1  0.52144000  0.05784000  0.18684000  1
  C  C67  1  0.52144000  0.18684000  0.05784000  1
  C  C68  1  0.44750000  0.99740000  0.08830000  1
  C  C69  1  0.44750000  0.08830000  0.99740000  1
  C  C70  1  0.23649000  0.10629000  0.52459000  1
  C  C71  1  0.23649000  0.52459000  0.10629000  1
  C  C72  1  0.51960000  0.09785000  0.09785000  1
  C  C73  1  0.43640000  0.95370000  0.04010000  1
  C  C74  1  0.43640000  0.04010000  0.95370000  1
  C  C75  1  0.66667000  0.48007000  0.93537000  1
  C  C76  1  0.66667000  0.93537000  0.48007000  1
  C  C77  1  0.51115000  0.04635000  0.04635000  1
  Cu  Cu78  1  0.07592667  0.50404667  0.50404667  1
  Cu  Cu79  1  0.50404667  0.50404667  0.07592667  1
  Cu  Cu80  1  0.50404667  0.07592667  0.50404667  1
  Cu  Cu81  1  0.49595333  0.49595333  0.92407333  1
  Cu  Cu82  1  0.49595333  0.92407333  0.49595333  1
  Cu  Cu83  1  0.92407333  0.49595333  0.49595333  1
  H  H84  1  0.78620000  0.00190000  0.47950000  1
  H  H85  1  0.78620000  0.47950000  0.00190000  1
  H  H86  1  0.47950000  0.78620000  0.00190000  1
  H  H87  1  0.47950000  0.00190000  0.78620000  1
  H  H88  1  0.99810000  0.21380000  0.52050000  1
  H  H89  1  0.99810000  0.52050000  0.21380000  1
  H  H90  1  0.77350000  0.77350000  0.46830000  1
  H  H91  1  0.77350000  0.46830000  0.77350000  1
  H  H92  1  0.46830000  0.77350000  0.77350000  1
  H  H93  1  0.53170000  0.22650000  0.22650000  1
  H  H94  1  0.22650000  0.22650000  0.53170000  1
  H  H95  1  0.22650000  0.53170000  0.22650000  1
  H  H96  1  0.00190000  0.78620000  0.47950000  1
  H  H97  1  0.00190000  0.47950000  0.78620000  1
  H  H98  1  0.52050000  0.99810000  0.21380000  1
  H  H99  1  0.52050000  0.21380000  0.99810000  1
  H  H100  1  0.21380000  0.99810000  0.52050000  1
  H  H101  1  0.21380000  0.52050000  0.99810000  1
  O  O102  1  0.98580000  0.36628000  0.51475000  1
  O  O103  1  0.98580000  0.51475000  0.36628000  1
  O  O104  1  0.37427000  0.52130000  0.11316000  1
  O  O105  1  0.37427000  0.11316000  0.52130000  1
  O  O106  1  0.36628000  0.51475000  0.98580000  1
  O  O107  1  0.36628000  0.98580000  0.51475000  1
  O  O108  1  0.48525000  0.63372000  0.01420000  1
  O  O109  1  0.48525000  0.01420000  0.63372000  1
  O  O110  1  0.11316000  0.37427000  0.52130000  1
  O  O111  1  0.11316000  0.52130000  0.37427000  1
  O  O112  1  0.47870000  0.62573000  0.88684000  1
  O  O113  1  0.47870000  0.88684000  0.62573000  1
  O  O114  1  0.52130000  0.37427000  0.11316000  1
  O  O115  1  0.52130000  0.11316000  0.37427000  1
  O  O116  1  0.88684000  0.47870000  0.62573000  1
  O  O117  1  0.88684000  0.62573000  0.47870000  1
  O  O118  1  0.51475000  0.36628000  0.98580000  1
  O  O119  1  0.51475000  0.98580000  0.36628000  1
  O  O120  1  0.63372000  0.48525000  0.01420000  1
  O  O121  1  0.63372000  0.01420000  0.48525000  1
  O  O122  1  0.62573000  0.47870000  0.88684000  1
  O  O123  1  0.62573000  0.88684000  0.47870000  1
  O  O124  1  0.01420000  0.48525000  0.63372000  1
  O  O125  1  0.01420000  0.63372000  0.48525000  1
