# generated using pymatgen
data_FeH18(C3N2)6
_symmetry_space_group_name_H-M   'P 1'
_cell_length_a   7.44710000
_cell_length_b   13.30914746
_cell_length_c   13.30914746
_cell_angle_alpha   116.60376021
_cell_angle_beta   100.74952135
_cell_angle_gamma   100.74952135
_symmetry_Int_Tables_number   1
_chemical_formula_structural   FeH18(C3N2)6
_chemical_formula_sum   'Fe2 H36 C36 N24'
_cell_volume   1102.65825842
_cell_formula_units_Z   2
loop_
 _symmetry_equiv_pos_site_id
 _symmetry_equiv_pos_as_xyz
  1  'x, y, z'
loop_
 _atom_site_type_symbol
 _atom_site_label
 _atom_site_symmetry_multiplicity
 _atom_site_fract_x
 _atom_site_fract_y
 _atom_site_fract_z
 _atom_site_occupancy
  C  C0  1  0.88640000  0.57330000  0.51030000  1
  C  C1  1  0.88640000  0.51030000  0.57330000  1
  C  C2  1  0.15800000  0.59180000  0.53230000  1
  C  C3  1  0.15800000  0.53230000  0.59180000  1
  C  C4  1  0.04526000  0.60579000  0.60579000  1
  C  C5  1  0.37897000  0.00000000  0.28171000  1
  C  C6  1  0.37897000  0.28171000  1.00000000  1
  C  C7  1  0.56620000  0.94050000  0.40820000  1
  C  C8  1  0.56620000  0.40820000  0.94050000  1
  C  C9  1  0.31310000  0.93700000  0.42670000  1
  C  C10  1  0.31310000  0.42670000  0.93700000  1
  C  C11  1  0.43947000  1.00000000  0.39421000  1
  C  C12  1  0.43947000  0.39421000  1.00000000  1
  C  C13  1  0.09726000  0.71829000  0.71829000  1
  C  C14  1  0.62390000  0.93700000  0.51030000  1
  C  C15  1  0.62390000  0.51030000  0.93700000  1
  C  C16  1  0.37430000  0.94050000  0.53230000  1
  C  C17  1  0.37430000  0.53230000  0.94050000  1
  C  C18  1  0.62570000  0.05950000  0.46770000  1
  C  C19  1  0.62570000  0.46770000  0.05950000  1
  C  C20  1  0.37610000  0.06300000  0.48970000  1
  C  C21  1  0.37610000  0.48970000  0.06300000  1
  C  C22  1  0.90274000  0.28171000  0.28171000  1
  C  C23  1  0.56053000  1.00000000  0.60579000  1
  C  C24  1  0.56053000  0.60579000  1.00000000  1
  C  C25  1  0.68690000  0.06300000  0.57330000  1
  C  C26  1  0.68690000  0.57330000  0.06300000  1
  C  C27  1  0.43380000  0.05950000  0.59180000  1
  C  C28  1  0.43380000  0.59180000  0.05950000  1
  C  C29  1  0.62103000  0.00000000  0.71829000  1
  C  C30  1  0.62103000  0.71829000  1.00000000  1
  C  C31  1  0.95474000  0.39421000  0.39421000  1
  C  C32  1  0.84200000  0.46770000  0.40820000  1
  C  C33  1  0.84200000  0.40820000  0.46770000  1
  C  C34  1  0.11360000  0.48970000  0.42670000  1
  C  C35  1  0.11360000  0.42670000  0.48970000  1
  Fe  Fe36  1  0.00000000  0.00000000  0.00000000  1
  Fe  Fe37  1  0.50000000  0.00000000  0.00000000  1
  H  H38  1  0.80660000  0.62350000  0.51710000  1
  H  H39  1  0.80660000  0.51710000  0.62350000  1
  H  H40  1  0.26860000  0.65650000  0.55490000  1
  H  H41  1  0.26860000  0.55490000  0.65650000  1
  H  H42  1  0.62170000  0.00000000  0.23400000  1
  H  H43  1  0.62170000  0.23400000  0.00000000  1
  H  H44  1  0.61210000  0.89840000  0.34350000  1
  H  H45  1  0.61210000  0.34350000  0.89840000  1
  H  H46  1  0.10315000  1.00000000  0.25635000  1
  H  H47  1  0.10315000  0.25635000  1.00000000  1
  H  H48  1  0.18310000  0.89360000  0.37650000  1
  H  H49  1  0.18310000  0.37650000  0.89360000  1
  H  H50  1  0.71050000  0.89360000  0.51710000  1
  H  H51  1  0.71050000  0.51710000  0.89360000  1
  H  H52  1  0.28630000  0.89840000  0.55490000  1
  H  H53  1  0.28630000  0.55490000  0.89840000  1
  H  H54  1  0.61230000  0.23400000  0.23400000  1
  H  H55  1  0.84680000  0.74365000  0.74365000  1
  H  H56  1  0.15320000  0.25635000  0.25635000  1
  H  H57  1  0.38770000  0.76600000  0.76600000  1
  H  H58  1  0.71370000  0.10160000  0.44510000  1
  H  H59  1  0.71370000  0.44510000  0.10160000  1
  H  H60  1  0.28950000  0.10640000  0.48290000  1
  H  H61  1  0.28950000  0.48290000  0.10640000  1
  H  H62  1  0.81690000  0.10640000  0.62350000  1
  H  H63  1  0.81690000  0.62350000  0.10640000  1
  H  H64  1  0.89685000  1.00000000  0.74365000  1
  H  H65  1  0.89685000  0.74365000  1.00000000  1
  H  H66  1  0.38790000  0.10160000  0.65650000  1
  H  H67  1  0.38790000  0.65650000  0.10160000  1
  H  H68  1  0.37830000  1.00000000  0.76600000  1
  H  H69  1  0.37830000  0.76600000  1.00000000  1
  H  H70  1  0.73140000  0.44510000  0.34350000  1
  H  H71  1  0.73140000  0.34350000  0.44510000  1
  H  H72  1  0.19340000  0.48290000  0.37650000  1
  H  H73  1  0.19340000  0.37650000  0.48290000  1
  N  N74  1  0.39467000  0.00000000  0.12451000  1
  N  N75  1  0.39467000  0.12451000  1.00000000  1
  N  N76  1  0.22017000  0.00000000  0.13201000  1
  N  N77  1  0.22017000  0.13201000  1.00000000  1
  N  N78  1  0.49892000  0.00000000  0.21766000  1
  N  N79  1  0.49892000  0.21766000  1.00000000  1
  N  N80  1  0.20617000  1.00000000  0.23011000  1
  N  N81  1  0.20617000  0.23011000  1.00000000  1
  N  N82  1  0.72984000  0.12451000  0.12451000  1
  N  N83  1  0.91184000  0.13201000  0.13201000  1
  N  N84  1  0.71874000  0.21766000  0.21766000  1
  N  N85  1  0.02394000  0.23011000  0.23011000  1
  N  N86  1  0.97606000  0.76989000  0.76989000  1
  N  N87  1  0.28126000  0.78234000  0.78234000  1
  N  N88  1  0.08816000  0.86799000  0.86799000  1
  N  N89  1  0.27016000  0.87549000  0.87549000  1
  N  N90  1  0.79383000  0.00000000  0.76989000  1
  N  N91  1  0.79383000  0.76989000  1.00000000  1
  N  N92  1  0.50108000  1.00000000  0.78234000  1
  N  N93  1  0.50108000  0.78234000  1.00000000  1
  N  N94  1  0.77983000  0.00000000  0.86799000  1
  N  N95  1  0.77983000  0.86799000  0.00000000  1
  N  N96  1  0.60533000  1.00000000  0.87549000  1
  N  N97  1  0.60533000  0.87549000  1.00000000  1
