# generated using pymatgen
data_ZnH12C21N2O7
_symmetry_space_group_name_H-M   'P 1'
_cell_length_a   13.08430000
_cell_length_b   14.28799782
_cell_length_c   16.34160000
_cell_angle_alpha   88.18154889
_cell_angle_beta   86.02600000
_cell_angle_gamma   62.74978124
_symmetry_Int_Tables_number   1
_chemical_formula_structural   ZnH12C21N2O7
_chemical_formula_sum   'Zn4 H48 C84 N8 O28'
_cell_volume   2709.44444764
_cell_formula_units_Z   4
loop_
 _symmetry_equiv_pos_site_id
 _symmetry_equiv_pos_as_xyz
  1  'x, y, z'
loop_
 _atom_site_type_symbol
 _atom_site_label
 _atom_site_symmetry_multiplicity
 _atom_site_fract_x
 _atom_site_fract_y
 _atom_site_fract_z
 _atom_site_occupancy
  C  C0  1  0.15799000  0.68402000  0.00000000  1
  C  C1  1  0.21696000  0.56608000  0.00000000  1
  C  C2  1  0.32610000  0.34780000  0.00000000  1
  C  C3  1  0.67390000  0.65220000  0.00000000  1
  C  C4  1  0.78304000  0.43392000  0.00000000  1
  C  C5  1  0.84201000  0.31598000  0.00000000  1
  C  C6  1  0.21124000  0.56738000  0.76623000  1
  C  C7  1  0.77862000  0.43262000  0.76623000  1
  C  C8  1  0.29384000  0.38220000  0.74246000  1
  C  C9  1  0.67604000  0.61780000  0.74246000  1
  C  C10  1  0.23541000  0.43366000  0.47782000  1
  C  C11  1  0.66907000  0.56634000  0.47782000  1
  C  C12  1  0.20366000  0.48200000  0.73345000  1
  C  C13  1  0.68566000  0.51800000  0.73345000  1
  C  C14  1  0.24169000  0.37070000  0.21710000  1
  C  C15  1  0.61239000  0.62930000  0.21710000  1
  C  C16  1  0.16244000  0.51108000  0.97119000  1
  C  C17  1  0.67352000  0.48892000  0.97119000  1
  C  C18  1  0.21691000  0.40208000  0.97094000  1
  C  C19  1  0.61899000  0.59792000  0.97094000  1
  C  C20  1  0.15200000  0.52478000  0.44378000  1
  C  C21  1  0.67678000  0.47522000  0.44378000  1
  C  C22  1  0.22694000  0.34112000  0.46827000  1
  C  C23  1  0.56806000  0.65888000  0.46827000  1
  C  C24  1  0.15152000  0.45810000  0.18648000  1
  C  C25  1  0.60962000  0.54190000  0.18648000  1
  C  C26  1  0.36850000  0.00000000  0.48470000  1
  C  C27  1  0.15822000  0.34252000  0.93918000  1
  C  C28  1  0.50074000  0.65748000  0.93918000  1
  C  C29  1  0.06464000  0.52364000  0.40145000  1
  C  C30  1  0.58828000  0.47636000  0.40145000  1
  C  C31  1  0.03208000  0.57896000  0.65419000  1
  C  C32  1  0.61104000  0.42104000  0.65419000  1
  C  C33  1  0.32050000  0.00000000  0.57020000  1
  C  C34  1  0.13987000  0.33986000  0.42625000  1
  C  C35  1  0.47973000  0.66014000  0.42625000  1
  C  C36  1  0.25010000  0.09440000  0.61015000  1
  C  C37  1  0.34450000  0.90560000  0.61015000  1
  C  C38  1  0.77800000  0.00000000  0.27470000  1
  C  C39  1  0.87440000  0.80204000  0.26943000  1
  C  C40  1  0.67644000  0.19796000  0.26943000  1
  C  C41  1  0.05803000  0.43086000  0.39181000  1
  C  C42  1  0.48889000  0.56914000  0.39181000  1
  C  C43  1  0.79991000  0.90480000  0.31204000  1
  C  C44  1  0.70471000  0.09520000  0.31204000  1
  C  C45  1  0.20009000  0.09520000  0.68796000  1
  C  C46  1  0.29529000  0.90480000  0.68796000  1
  C  C47  1  0.94197000  0.56914000  0.60819000  1
  C  C48  1  0.51111000  0.43086000  0.60819000  1
  C  C49  1  0.12560000  0.19796000  0.73057000  1
  C  C50  1  0.32356000  0.80204000  0.73057000  1
  C  C51  1  0.22200000  0.00000000  0.72530000  1
  C  C52  1  0.74990000  0.90560000  0.38985000  1
  C  C53  1  0.65550000  0.09440000  0.38985000  1
  C  C54  1  0.86013000  0.66014000  0.57375000  1
  C  C55  1  0.52027000  0.33986000  0.57375000  1
  C  C56  1  0.67950000  1.00000000  0.42980000  1
  C  C57  1  0.96792000  0.42104000  0.34581000  1
  C  C58  1  0.38896000  0.57896000  0.34581000  1
  C  C59  1  0.93536000  0.47636000  0.59855000  1
  C  C60  1  0.41172000  0.52364000  0.59855000  1
  C  C61  1  0.84178000  0.65748000  0.06082000  1
  C  C62  1  0.49926000  0.34252000  0.06082000  1
  C  C63  1  0.63150000  0.00000000  0.51530000  1
  C  C64  1  0.84848000  0.54190000  0.81352000  1
  C  C65  1  0.39038000  0.45810000  0.81352000  1
  C  C66  1  0.77306000  0.65888000  0.53173000  1
  C  C67  1  0.43194000  0.34112000  0.53173000  1
  C  C68  1  0.84800000  0.47522000  0.55622000  1
  C  C69  1  0.32322000  0.52478000  0.55622000  1
  C  C70  1  0.78309000  0.59792000  0.02906000  1
  C  C71  1  0.38101000  0.40208000  0.02906000  1
  C  C72  1  0.83756000  0.48892000  0.02881000  1
  C  C73  1  0.32648000  0.51108000  0.02881000  1
  C  C74  1  0.75831000  0.62930000  0.78290000  1
  C  C75  1  0.38761000  0.37070000  0.78290000  1
  C  C76  1  0.79634000  0.51800000  0.26655000  1
  C  C77  1  0.31434000  0.48200000  0.26655000  1
  C  C78  1  0.76459000  0.56634000  0.52218000  1
  C  C79  1  0.33093000  0.43366000  0.52218000  1
  C  C80  1  0.70616000  0.61780000  0.25754000  1
  C  C81  1  0.32396000  0.38220000  0.25754000  1
  C  C82  1  0.78876000  0.43262000  0.23377000  1
  C  C83  1  0.22138000  0.56738000  0.23377000  1
  H  H84  1  0.36270000  0.27460000  0.00000000  1
  H  H85  1  0.63730000  0.72540000  0.00000000  1
  H  H86  1  0.15090000  0.63460000  0.76090000  1
  H  H87  1  0.78550000  0.36540000  0.76090000  1
  H  H88  1  0.29100000  0.32380000  0.72140000  1
  H  H89  1  0.61480000  0.67620000  0.72140000  1
  H  H90  1  0.15500000  0.58800000  0.44960000  1
  H  H91  1  0.74300000  0.41200000  0.44960000  1
  H  H92  1  0.28120000  0.27880000  0.49070000  1
  H  H93  1  0.56000000  0.72120000  0.49070000  1
  H  H94  1  0.24690000  0.30420000  0.21050000  1
  H  H95  1  0.55110000  0.69580000  0.21050000  1
  H  H96  1  0.08910000  0.54760000  0.95200000  1
  H  H97  1  0.63670000  0.45240000  0.95200000  1
  H  H98  1  0.09610000  0.44960000  0.15930000  1
  H  H99  1  0.54570000  0.55040000  0.15930000  1
  H  H100  1  0.09860000  0.43660000  0.68900000  1
  H  H101  1  0.53520000  0.56340000  0.68900000  1
  H  H102  1  0.23640000  0.15780000  0.58450000  1
  H  H103  1  0.39420000  0.84220000  0.58450000  1
  H  H104  1  0.81330000  1.00000000  0.22330000  1
  H  H105  1  0.00990000  0.58580000  0.37930000  1
  H  H106  1  0.59570000  0.41420000  0.37930000  1
  H  H107  1  0.13610000  0.27700000  0.42090000  1
  H  H108  1  0.41310000  0.72300000  0.42090000  1
  H  H109  1  0.86390000  0.72300000  0.57910000  1
  H  H110  1  0.58690000  0.27700000  0.57910000  1
  H  H111  1  0.99010000  0.41420000  0.62070000  1
  H  H112  1  0.40430000  0.58580000  0.62070000  1
  H  H113  1  0.18670000  0.00000000  0.77670000  1
  H  H114  1  0.76360000  0.84220000  0.41550000  1
  H  H115  1  0.60580000  0.15780000  0.41550000  1
  H  H116  1  0.90140000  0.56340000  0.31100000  1
  H  H117  1  0.46480000  0.43660000  0.31100000  1
  H  H118  1  0.90390000  0.55040000  0.84070000  1
  H  H119  1  0.45430000  0.44960000  0.84070000  1
  H  H120  1  0.91090000  0.45240000  0.04800000  1
  H  H121  1  0.36330000  0.54760000  0.04800000  1
  H  H122  1  0.75310000  0.69580000  0.78950000  1
  H  H123  1  0.44890000  0.30420000  0.78950000  1
  H  H124  1  0.71880000  0.72120000  0.50930000  1
  H  H125  1  0.44000000  0.27880000  0.50930000  1
  H  H126  1  0.84500000  0.41200000  0.55040000  1
  H  H127  1  0.25700000  0.58800000  0.55040000  1
  H  H128  1  0.70900000  0.67620000  0.27860000  1
  H  H129  1  0.38520000  0.32380000  0.27860000  1
  H  H130  1  0.84910000  0.36540000  0.23910000  1
  H  H131  1  0.21450000  0.63460000  0.23910000  1
  N  N132  1  0.14159000  0.55458000  0.19471000  1
  N  N133  1  0.69617000  0.44542000  0.19471000  1
  N  N134  1  0.10867000  0.49182000  0.69127000  1
  N  N135  1  0.60049000  0.50818000  0.69127000  1
  N  N136  1  0.89133000  0.50818000  0.30873000  1
  N  N137  1  0.39951000  0.49182000  0.30873000  1
  N  N138  1  0.85841000  0.44542000  0.80529000  1
  N  N139  1  0.30383000  0.55458000  0.80529000  1
  O  O140  1  0.07486000  0.73252000  0.05091000  1
  O  O141  1  0.80738000  0.26748000  0.05091000  1
  O  O142  1  0.34255000  0.08590000  0.44972000  1
  O  O143  1  0.42845000  0.91410000  0.44972000  1
  O  O144  1  0.03607000  0.66222000  0.65663000  1
  O  O145  1  0.69829000  0.33778000  0.65663000  1
  O  O146  1  0.93241000  0.80698000  0.20457000  1
  O  O147  1  0.73939000  0.19302000  0.20457000  1
  O  O148  1  0.19284000  0.24914000  0.95431000  1
  O  O149  1  0.44198000  0.75086000  0.95431000  1
  O  O150  1  0.07096000  0.39688000  0.89754000  1
  O  O151  1  0.46784000  0.60312000  0.89754000  1
  O  O152  1  0.12452000  0.27942000  0.70340000  1
  O  O153  1  0.40394000  0.72058000  0.70340000  1
  O  O154  1  0.87548000  0.72058000  0.29660000  1
  O  O155  1  0.59606000  0.27942000  0.29660000  1
  O  O156  1  0.92904000  0.60312000  0.10246000  1
  O  O157  1  0.53216000  0.39688000  0.10246000  1
  O  O158  1  0.80716000  0.75086000  0.04569000  1
  O  O159  1  0.55802000  0.24914000  0.04569000  1
  O  O160  1  0.06759000  0.19302000  0.79543000  1
  O  O161  1  0.26061000  0.80698000  0.79543000  1
  O  O162  1  0.96393000  0.33778000  0.34337000  1
  O  O163  1  0.30171000  0.66222000  0.34337000  1
  O  O164  1  0.65745000  0.91410000  0.55028000  1
  O  O165  1  0.57155000  0.08590000  0.55028000  1
  O  O166  1  0.92514000  0.26748000  0.94909000  1
  O  O167  1  0.19262000  0.73252000  0.94909000  1
  Zn  Zn168  1  0.00768000  0.67758000  0.14203000  1
  Zn  Zn169  1  0.68526000  0.32242000  0.14203000  1
  Zn  Zn170  1  0.99232000  0.32242000  0.85797000  1
  Zn  Zn171  1  0.31474000  0.67758000  0.85797000  1
