# generated using pymatgen
data_Ni3H48C69O13
_symmetry_space_group_name_H-M   'P 1'
_cell_length_a   11.24360000
_cell_length_b   26.25000000
_cell_length_c   26.25000000
_cell_angle_alpha   120.00000000
_cell_angle_beta   90.00000000
_cell_angle_gamma   90.00000000
_symmetry_Int_Tables_number   1
_chemical_formula_structural   Ni3H48C69O13
_chemical_formula_sum   'Ni6 H96 C138 O26'
_cell_volume   6709.56916317
_cell_formula_units_Z   2
loop_
 _symmetry_equiv_pos_site_id
 _symmetry_equiv_pos_as_xyz
  1  'x, y, z'
loop_
 _atom_site_type_symbol
 _atom_site_label
 _atom_site_symmetry_multiplicity
 _atom_site_fract_x
 _atom_site_fract_y
 _atom_site_fract_z
 _atom_site_occupancy
  Ni  Ni0  1  0.00000000  0.71008000  0.28992000  1
  Ni  Ni1  1  0.00000000  0.71008000  0.42016000  1
  Ni  Ni2  1  0.00000000  0.57984000  0.28992000  1
  Ni  Ni3  1  1.00000000  0.42016000  0.71008000  1
  Ni  Ni4  1  1.00000000  0.28992000  0.57984000  1
  Ni  Ni5  1  1.00000000  0.28992000  0.71008000  1
  H  H6  1  0.76300000  0.95950000  0.42450000  1
  H  H7  1  0.23700000  0.95950000  0.42450000  1
  H  H8  1  0.76300000  0.95950000  0.53500000  1
  H  H9  1  0.23700000  0.95950000  0.53500000  1
  H  H10  1  0.55770000  0.89580000  0.38560000  1
  H  H11  1  0.44230000  0.89580000  0.38560000  1
  H  H12  1  0.55770000  0.89580000  0.51020000  1
  H  H13  1  0.44230000  0.89580000  0.51020000  1
  H  H14  1  0.84270000  0.89410000  0.38980000  1
  H  H15  1  0.15730000  0.89410000  0.38980000  1
  H  H16  1  0.84270000  0.89410000  0.50430000  1
  H  H17  1  0.15730000  0.89410000  0.50430000  1
  H  H18  1  0.64770000  0.82950000  0.35110000  1
  H  H19  1  0.35230000  0.82950000  0.35110000  1
  H  H20  1  0.64770000  0.82950000  0.47840000  1
  H  H21  1  0.35230000  0.82950000  0.47840000  1
  H  H22  1  0.64770000  0.64890000  0.17050000  1
  H  H23  1  0.35230000  0.64890000  0.17050000  1
  H  H24  1  0.64770000  0.64890000  0.47840000  1
  H  H25  1  0.35230000  0.64890000  0.47840000  1
  H  H26  1  0.55770000  0.61440000  0.10420000  1
  H  H27  1  0.44230000  0.61440000  0.10420000  1
  H  H28  1  0.55770000  0.61440000  0.51020000  1
  H  H29  1  0.44230000  0.61440000  0.51020000  1
  H  H30  1  0.84270000  0.61020000  0.10590000  1
  H  H31  1  0.15730000  0.61020000  0.10590000  1
  H  H32  1  0.84270000  0.61020000  0.50430000  1
  H  H33  1  0.15730000  0.61020000  0.50430000  1
  H  H34  1  0.76300000  0.57550000  0.04050000  1
  H  H35  1  0.23700000  0.57550000  0.04050000  1
  H  H36  1  0.76300000  0.57550000  0.53500000  1
  H  H37  1  0.23700000  0.57550000  0.53500000  1
  H  H38  1  0.76300000  0.53500000  0.57550000  1
  H  H39  1  0.23700000  0.53500000  0.57550000  1
  H  H40  1  0.76300000  0.53500000  0.95950000  1
  H  H41  1  0.23700000  0.53500000  0.95950000  1
  H  H42  1  0.64770000  0.52160000  0.17050000  1
  H  H43  1  0.35230000  0.52160000  0.17050000  1
  H  H44  1  0.64770000  0.52160000  0.35110000  1
  H  H45  1  0.35230000  0.52160000  0.35110000  1
  H  H46  1  0.55770000  0.51020000  0.61440000  1
  H  H47  1  0.44230000  0.51020000  0.61440000  1
  H  H48  1  0.55770000  0.51020000  0.89580000  1
  H  H49  1  0.44230000  0.51020000  0.89580000  1
  H  H50  1  0.84270000  0.50430000  0.61020000  1
  H  H51  1  0.15730000  0.50430000  0.61020000  1
  H  H52  1  0.84270000  0.50430000  0.89410000  1
  H  H53  1  0.15730000  0.50430000  0.89410000  1
  H  H54  1  0.84270000  0.49570000  0.10590000  1
  H  H55  1  0.15730000  0.49570000  0.10590000  1
  H  H56  1  0.84270000  0.49570000  0.38980000  1
  H  H57  1  0.15730000  0.49570000  0.38980000  1
  H  H58  1  0.55770000  0.48980000  0.10420000  1
  H  H59  1  0.44230000  0.48980000  0.10420000  1
  H  H60  1  0.55770000  0.48980000  0.38560000  1
  H  H61  1  0.44230000  0.48980000  0.38560000  1
  H  H62  1  0.64770000  0.47840000  0.64890000  1
  H  H63  1  0.35230000  0.47840000  0.64890000  1
  H  H64  1  0.64770000  0.47840000  0.82950000  1
  H  H65  1  0.35230000  0.47840000  0.82950000  1
  H  H66  1  0.76300000  0.46500000  0.04050000  1
  H  H67  1  0.23700000  0.46500000  0.04050000  1
  H  H68  1  0.76300000  0.46500000  0.42450000  1
  H  H69  1  0.23700000  0.46500000  0.42450000  1
  H  H70  1  0.76300000  0.42450000  0.46500000  1
  H  H71  1  0.23700000  0.42450000  0.46500000  1
  H  H72  1  0.76300000  0.42450000  0.95950000  1
  H  H73  1  0.23700000  0.42450000  0.95950000  1
  H  H74  1  0.84270000  0.38980000  0.49570000  1
  H  H75  1  0.15730000  0.38980000  0.49570000  1
  H  H76  1  0.84270000  0.38980000  0.89410000  1
  H  H77  1  0.15730000  0.38980000  0.89410000  1
  H  H78  1  0.55770000  0.38560000  0.48980000  1
  H  H79  1  0.44230000  0.38560000  0.48980000  1
  H  H80  1  0.55770000  0.38560000  0.89580000  1
  H  H81  1  0.44230000  0.38560000  0.89580000  1
  H  H82  1  0.64770000  0.35110000  0.52160000  1
  H  H83  1  0.35230000  0.35110000  0.52160000  1
  H  H84  1  0.64770000  0.35110000  0.82950000  1
  H  H85  1  0.35230000  0.35110000  0.82950000  1
  H  H86  1  0.64770000  0.17050000  0.52160000  1
  H  H87  1  0.35230000  0.17050000  0.52160000  1
  H  H88  1  0.64770000  0.17050000  0.64890000  1
  H  H89  1  0.35230000  0.17050000  0.64890000  1
  H  H90  1  0.84270000  0.10590000  0.49570000  1
  H  H91  1  0.15730000  0.10590000  0.49570000  1
  H  H92  1  0.84270000  0.10590000  0.61020000  1
  H  H93  1  0.15730000  0.10590000  0.61020000  1
  H  H94  1  0.55770000  0.10420000  0.48980000  1
  H  H95  1  0.44230000  0.10420000  0.48980000  1
  H  H96  1  0.55770000  0.10420000  0.61440000  1
  H  H97  1  0.44230000  0.10420000  0.61440000  1
  H  H98  1  0.76300000  0.04050000  0.46500000  1
  H  H99  1  0.23700000  0.04050000  0.46500000  1
  H  H100  1  0.76300000  0.04050000  0.57550000  1
  H  H101  1  0.23700000  0.04050000  0.57550000  1
  C  C102  1  0.55950000  1.00000000  0.50000000  1
  C  C103  1  0.44050000  1.00000000  0.50000000  1
  C  C104  1  0.63140000  0.94452000  0.47226000  1
  C  C105  1  0.36860000  0.94452000  0.47226000  1
  C  C106  1  0.71140000  0.93340000  0.42990000  1
  C  C107  1  0.28860000  0.93340000  0.42990000  1
  C  C108  1  0.71140000  0.93340000  0.50350000  1
  C  C109  1  0.28860000  0.93340000  0.50350000  1
  C  C110  1  0.62260000  0.90610000  0.41280000  1
  C  C111  1  0.37740000  0.90610000  0.41280000  1
  C  C112  1  0.62260000  0.90610000  0.49330000  1
  C  C113  1  0.37740000  0.90610000  0.49330000  1
  C  C114  1  0.77530000  0.88190000  0.40350000  1
  C  C115  1  0.22470000  0.88190000  0.40350000  1
  C  C116  1  0.77530000  0.88190000  0.47840000  1
  C  C117  1  0.22470000  0.88190000  0.47840000  1
  C  C118  1  0.69270000  0.85430000  0.38600000  1
  C  C119  1  0.30730000  0.85430000  0.38600000  1
  C  C120  1  0.69270000  0.85430000  0.46830000  1
  C  C121  1  0.30730000  0.85430000  0.46830000  1
  C  C122  1  0.76770000  0.84252000  0.42126000  1
  C  C123  1  0.23230000  0.84252000  0.42126000  1
  C  C124  1  0.84380000  0.78760000  0.39380000  1
  C  C125  1  0.15620000  0.78760000  0.39380000  1
  C  C126  1  0.69270000  0.61400000  0.14570000  1
  C  C127  1  0.30730000  0.61400000  0.14570000  1
  C  C128  1  0.69270000  0.61400000  0.46830000  1
  C  C129  1  0.30730000  0.61400000  0.46830000  1
  C  C130  1  0.84380000  0.60620000  0.21240000  1
  C  C131  1  0.15620000  0.60620000  0.21240000  1
  C  C132  1  0.84380000  0.60620000  0.39380000  1
  C  C133  1  0.15620000  0.60620000  0.39380000  1
  C  C134  1  0.77530000  0.59650000  0.11810000  1
  C  C135  1  0.22470000  0.59650000  0.11810000  1
  C  C136  1  0.77530000  0.59650000  0.47840000  1
  C  C137  1  0.22470000  0.59650000  0.47840000  1
  C  C138  1  0.62260000  0.58720000  0.09390000  1
  C  C139  1  0.37740000  0.58720000  0.09390000  1
  C  C140  1  0.62260000  0.58720000  0.49330000  1
  C  C141  1  0.37740000  0.58720000  0.49330000  1
  C  C142  1  0.76770000  0.57874000  0.15748000  1
  C  C143  1  0.23230000  0.57874000  0.15748000  1
  C  C144  1  0.76770000  0.57874000  0.42126000  1
  C  C145  1  0.23230000  0.57874000  0.42126000  1
  C  C146  1  0.71140000  0.57010000  0.06660000  1
  C  C147  1  0.28860000  0.57010000  0.06660000  1
  C  C148  1  0.71140000  0.57010000  0.50350000  1
  C  C149  1  0.28860000  0.57010000  0.50350000  1
  C  C150  1  0.69270000  0.53170000  0.14570000  1
  C  C151  1  0.30730000  0.53170000  0.14570000  1
  C  C152  1  0.69270000  0.53170000  0.38600000  1
  C  C153  1  0.30730000  0.53170000  0.38600000  1
  C  C154  1  0.63140000  0.52774000  0.05548000  1
  C  C155  1  0.36860000  0.52774000  0.05548000  1
  C  C156  1  0.63140000  0.52774000  0.47226000  1
  C  C157  1  0.36860000  0.52774000  0.47226000  1
  C  C158  1  0.77530000  0.52160000  0.11810000  1
  C  C159  1  0.22470000  0.52160000  0.11810000  1
  C  C160  1  0.77530000  0.52160000  0.40350000  1
  C  C161  1  0.22470000  0.52160000  0.40350000  1
  C  C162  1  0.62260000  0.50670000  0.09390000  1
  C  C163  1  0.37740000  0.50670000  0.09390000  1
  C  C164  1  0.62260000  0.50670000  0.41280000  1
  C  C165  1  0.37740000  0.50670000  0.41280000  1
  C  C166  1  0.71140000  0.50350000  0.57010000  1
  C  C167  1  0.28860000  0.50350000  0.57010000  1
  C  C168  1  0.71140000  0.50350000  0.93340000  1
  C  C169  1  0.28860000  0.50350000  0.93340000  1
  C  C170  1  0.55950000  0.50000000  0.50000000  1
  C  C171  1  0.44050000  0.50000000  0.50000000  1
  C  C172  1  0.55950000  0.50000000  1.00000000  1
  C  C173  1  0.44050000  0.50000000  1.00000000  1
  C  C174  1  0.71140000  0.49650000  0.06660000  1
  C  C175  1  0.28860000  0.49650000  0.06660000  1
  C  C176  1  0.71140000  0.49650000  0.42990000  1
  C  C177  1  0.28860000  0.49650000  0.42990000  1
  C  C178  1  0.62260000  0.49330000  0.58720000  1
  C  C179  1  0.37740000  0.49330000  0.58720000  1
  C  C180  1  0.62260000  0.49330000  0.90610000  1
  C  C181  1  0.37740000  0.49330000  0.90610000  1
  C  C182  1  0.77530000  0.47840000  0.59650000  1
  C  C183  1  0.22470000  0.47840000  0.59650000  1
  C  C184  1  0.77530000  0.47840000  0.88190000  1
  C  C185  1  0.22470000  0.47840000  0.88190000  1
  C  C186  1  0.63140000  0.47226000  0.52774000  1
  C  C187  1  0.36860000  0.47226000  0.52774000  1
  C  C188  1  0.63140000  0.47226000  0.94452000  1
  C  C189  1  0.36860000  0.47226000  0.94452000  1
  C  C190  1  0.69270000  0.46830000  0.61400000  1
  C  C191  1  0.30730000  0.46830000  0.61400000  1
  C  C192  1  0.69270000  0.46830000  0.85430000  1
  C  C193  1  0.30730000  0.46830000  0.85430000  1
  C  C194  1  0.71140000  0.42990000  0.49650000  1
  C  C195  1  0.28860000  0.42990000  0.49650000  1
  C  C196  1  0.71140000  0.42990000  0.93340000  1
  C  C197  1  0.28860000  0.42990000  0.93340000  1
  C  C198  1  0.76770000  0.42126000  0.57874000  1
  C  C199  1  0.23230000  0.42126000  0.57874000  1
  C  C200  1  0.76770000  0.42126000  0.84252000  1
  C  C201  1  0.23230000  0.42126000  0.84252000  1
  C  C202  1  0.62260000  0.41280000  0.50670000  1
  C  C203  1  0.37740000  0.41280000  0.50670000  1
  C  C204  1  0.62260000  0.41280000  0.90610000  1
  C  C205  1  0.37740000  0.41280000  0.90610000  1
  C  C206  1  0.77530000  0.40350000  0.52160000  1
  C  C207  1  0.22470000  0.40350000  0.52160000  1
  C  C208  1  0.77530000  0.40350000  0.88190000  1
  C  C209  1  0.22470000  0.40350000  0.88190000  1
  C  C210  1  0.84380000  0.39380000  0.60620000  1
  C  C211  1  0.15620000  0.39380000  0.60620000  1
  C  C212  1  0.84380000  0.39380000  0.78760000  1
  C  C213  1  0.15620000  0.39380000  0.78760000  1
  C  C214  1  0.69270000  0.38600000  0.53170000  1
  C  C215  1  0.30730000  0.38600000  0.53170000  1
  C  C216  1  0.69270000  0.38600000  0.85430000  1
  C  C217  1  0.30730000  0.38600000  0.85430000  1
  C  C218  1  0.84380000  0.21240000  0.60620000  1
  C  C219  1  0.15620000  0.21240000  0.60620000  1
  C  C220  1  0.76770000  0.15748000  0.57874000  1
  C  C221  1  0.23230000  0.15748000  0.57874000  1
  C  C222  1  0.69270000  0.14570000  0.53170000  1
  C  C223  1  0.30730000  0.14570000  0.53170000  1
  C  C224  1  0.69270000  0.14570000  0.61400000  1
  C  C225  1  0.30730000  0.14570000  0.61400000  1
  C  C226  1  0.77530000  0.11810000  0.52160000  1
  C  C227  1  0.22470000  0.11810000  0.52160000  1
  C  C228  1  0.77530000  0.11810000  0.59650000  1
  C  C229  1  0.22470000  0.11810000  0.59650000  1
  C  C230  1  0.62260000  0.09390000  0.50670000  1
  C  C231  1  0.37740000  0.09390000  0.50670000  1
  C  C232  1  0.62260000  0.09390000  0.58720000  1
  C  C233  1  0.37740000  0.09390000  0.58720000  1
  C  C234  1  0.71140000  0.06660000  0.49650000  1
  C  C235  1  0.28860000  0.06660000  0.49650000  1
  C  C236  1  0.71140000  0.06660000  0.57010000  1
  C  C237  1  0.28860000  0.06660000  0.57010000  1
  C  C238  1  0.63140000  0.05548000  0.52774000  1
  C  C239  1  0.36860000  0.05548000  0.52774000  1
  O  O240  1  0.87130000  0.76785000  0.34155000  1
  O  O241  1  0.12870000  0.76785000  0.34155000  1
  O  O242  1  0.87130000  0.76785000  0.42630000  1
  O  O243  1  0.12870000  0.76785000  0.42630000  1
  O  O244  1  0.00000000  0.66666667  0.33333333  1
  O  O245  1  0.87130000  0.65845000  0.23215000  1
  O  O246  1  0.12870000  0.65845000  0.23215000  1
  O  O247  1  0.87130000  0.65845000  0.42630000  1
  O  O248  1  0.12870000  0.65845000  0.42630000  1
  O  O249  1  0.87130000  0.57370000  0.23215000  1
  O  O250  1  0.12870000  0.57370000  0.23215000  1
  O  O251  1  0.87130000  0.57370000  0.34155000  1
  O  O252  1  0.12870000  0.57370000  0.34155000  1
  O  O253  1  0.87130000  0.42630000  0.65845000  1
  O  O254  1  0.12870000  0.42630000  0.65845000  1
  O  O255  1  0.87130000  0.42630000  0.76785000  1
  O  O256  1  0.12870000  0.42630000  0.76785000  1
  O  O257  1  0.87130000  0.34155000  0.57370000  1
  O  O258  1  0.12870000  0.34155000  0.57370000  1
  O  O259  1  0.87130000  0.34155000  0.76785000  1
  O  O260  1  0.12870000  0.34155000  0.76785000  1
  O  O261  1  1.00000000  0.33333333  0.66666667  1
  O  O262  1  0.87130000  0.23215000  0.57370000  1
  O  O263  1  0.12870000  0.23215000  0.57370000  1
  O  O264  1  0.87130000  0.23215000  0.65845000  1
  O  O265  1  0.12870000  0.23215000  0.65845000  1
