# generated using pymatgen
data_EuH18C33(NO)6
_symmetry_space_group_name_H-M   'P 1'
_cell_length_a   8.17370000
_cell_length_b   15.00920000
_cell_length_c   36.77923258
_cell_angle_alpha   90.00000000
_cell_angle_beta   90.73530361
_cell_angle_gamma   90.00000000
_symmetry_Int_Tables_number   1
_chemical_formula_structural   EuH18C33(NO)6
_chemical_formula_sum   'Eu4 H72 C132 N24 O24'
_cell_volume   4511.73036479
_cell_formula_units_Z   4
loop_
 _symmetry_equiv_pos_site_id
 _symmetry_equiv_pos_as_xyz
  1  'x, y, z'
loop_
 _atom_site_type_symbol
 _atom_site_label
 _atom_site_symmetry_multiplicity
 _atom_site_fract_x
 _atom_site_fract_y
 _atom_site_fract_z
 _atom_site_occupancy
  Eu  Eu0  1  0.66564000  0.90161000  0.98555000  1
  Eu  Eu1  1  0.16564000  0.09839000  0.48555000  1
  Eu  Eu2  1  0.83437000  0.90161000  0.51446000  1
  Eu  Eu3  1  0.33436000  0.09839000  0.01445000  1
  H  H4  1  0.07190000  0.60280000  0.10990000  1
  H  H5  1  0.57190000  0.39720000  0.60990000  1
  H  H6  1  0.04500000  0.91150000  0.09360000  1
  H  H7  1  0.54500000  0.08850000  0.59360000  1
  H  H8  1  0.38730000  0.52250000  0.44030000  1
  H  H9  1  0.88730000  0.47750000  0.94030000  1
  H  H10  1  0.26460000  0.90660000  0.34180000  1
  H  H11  1  0.76460000  0.09340000  0.84180000  1
  H  H12  1  0.36280000  0.75490000  0.50090000  1
  H  H13  1  0.86280000  0.24510000  0.00090000  1
  H  H14  1  0.91880000  0.66320000  0.06270000  1
  H  H15  1  0.41880000  0.33680000  0.56270000  1
  H  H16  1  0.12030000  0.92930000  0.29310000  1
  H  H17  1  0.62030000  0.07070000  0.79310000  1
  H  H18  1  0.08750000  0.66730000  0.28110000  1
  H  H19  1  0.58750000  0.33270000  0.78110000  1
  H  H20  1  0.96830000  0.94810000  0.23960000  1
  H  H21  1  0.46830000  0.05190000  0.73960000  1
  H  H22  1  0.94040000  0.68360000  0.22830000  1
  H  H23  1  0.44040000  0.31640000  0.72830000  1
  H  H24  1  0.29530000  0.52120000  0.58390000  1
  H  H25  1  0.79530000  0.47880000  0.08390000  1
  H  H26  1  0.14010000  0.57710000  0.45550000  1
  H  H27  1  0.64010000  0.42290000  0.95550000  1
  H  H28  1  0.82410000  0.96360000  0.19180000  1
  H  H29  1  0.32410000  0.03640000  0.69180000  1
  H  H30  1  0.60690000  0.62850000  0.02460000  1
  H  H31  1  0.10690000  0.37150000  0.52460000  1
  H  H32  1  0.00920000  0.81070000  0.42940000  1
  H  H33  1  0.50920000  0.18930000  0.92940000  1
  H  H34  1  0.90670000  0.70990000  0.38670000  1
  H  H35  1  0.40670000  0.29010000  0.88670000  1
  H  H36  1  0.09020000  0.62600000  0.57490000  1
  H  H37  1  0.59020000  0.37400000  0.07490000  1
  H  H38  1  0.13990000  0.98150000  0.63120000  1
  H  H39  1  0.63990000  0.01850000  0.13120000  1
  H  H40  1  0.36010000  0.98150000  0.86880000  1
  H  H41  1  0.86010000  0.01850000  0.36880000  1
  H  H42  1  0.40980000  0.62600000  0.92510000  1
  H  H43  1  0.90980000  0.37400000  0.42510000  1
  H  H44  1  0.59330000  0.70990000  0.11330000  1
  H  H45  1  0.09330000  0.29010000  0.61330000  1
  H  H46  1  0.49080000  0.81070000  0.07060000  1
  H  H47  1  0.99080000  0.18930000  0.57060000  1
  H  H48  1  0.89310000  0.62850000  0.47540000  1
  H  H49  1  0.39310000  0.37150000  0.97540000  1
  H  H50  1  0.67590000  0.96360000  0.30820000  1
  H  H51  1  0.17590000  0.03640000  0.80820000  1
  H  H52  1  0.35990000  0.57710000  0.04450000  1
  H  H53  1  0.85990000  0.42290000  0.54450000  1
  H  H54  1  0.20470000  0.52120000  0.91610000  1
  H  H55  1  0.70470000  0.47880000  0.41610000  1
  H  H56  1  0.55960000  0.68360000  0.27170000  1
  H  H57  1  0.05960000  0.31640000  0.77170000  1
  H  H58  1  0.53170000  0.94810000  0.26040000  1
  H  H59  1  0.03170000  0.05190000  0.76040000  1
  H  H60  1  0.41250000  0.66730000  0.21890000  1
  H  H61  1  0.91250000  0.33270000  0.71890000  1
  H  H62  1  0.37970000  0.92930000  0.20690000  1
  H  H63  1  0.87970000  0.07070000  0.70690000  1
  H  H64  1  0.58120000  0.66320000  0.43730000  1
  H  H65  1  0.08120000  0.33680000  0.93730000  1
  H  H66  1  0.13720000  0.75490000  0.99910000  1
  H  H67  1  0.63720000  0.24510000  0.49910000  1
  H  H68  1  0.23540000  0.90660000  0.15820000  1
  H  H69  1  0.73540000  0.09340000  0.65820000  1
  H  H70  1  0.11270000  0.52250000  0.05970000  1
  H  H71  1  0.61270000  0.47750000  0.55970000  1
  H  H72  1  0.45500000  0.91150000  0.40640000  1
  H  H73  1  0.95500000  0.08850000  0.90640000  1
  H  H74  1  0.42810000  0.60280000  0.39010000  1
  H  H75  1  0.92810000  0.39720000  0.89010000  1
  C  C76  1  0.36450000  0.81270000  0.37440000  1
  C  C77  1  0.86450000  0.18730000  0.87440000  1
  C  C78  1  0.35580000  0.72170000  0.36910000  1
  C  C79  1  0.85580000  0.27830000  0.86910000  1
  C  C80  1  0.06480000  0.66420000  0.10700000  1
  C  C81  1  0.56480000  0.33580000  0.60700000  1
  C  C82  1  0.04820000  0.85010000  0.09690000  1
  C  C83  1  0.54820000  0.14990000  0.59690000  1
  C  C84  1  0.46810000  0.64680000  0.52390000  1
  C  C85  1  0.96810000  0.35320000  0.02390000  1
  C  C86  1  0.45120000  0.57590000  0.54790000  1
  C  C87  1  0.95120000  0.42410000  0.04790000  1
  C  C88  1  0.97470000  0.70070000  0.07860000  1
  C  C89  1  0.47470000  0.29930000  0.57860000  1
  C  C90  1  0.22090000  0.78320000  0.32580000  1
  C  C91  1  0.72090000  0.21680000  0.82580000  1
  C  C92  1  0.96600000  0.79320000  0.07340000  1
  C  C93  1  0.46600000  0.20680000  0.57340000  1
  C  C94  1  0.80990000  0.56390000  0.97600000  1
  C  C95  1  0.30990000  0.43610000  0.47600000  1
  C  C96  1  0.34790000  0.70910000  0.51750000  1
  C  C97  1  0.84790000  0.29090000  0.01750000  1
  C  C98  1  0.12100000  0.79530000  0.29200000  1
  C  C99  1  0.62100000  0.20470000  0.79200000  1
  C  C100  1  0.86600000  0.83020000  0.04310000  1
  C  C101  1  0.36600000  0.16980000  0.54310000  1
  C  C102  1  0.08420000  0.87990000  0.28000000  1
  C  C103  1  0.58420000  0.12010000  0.78000000  1
  C  C104  1  0.06430000  0.72440000  0.27260000  1
  C  C105  1  0.56430000  0.27560000  0.77260000  1
  C  C106  1  0.99190000  0.89100000  0.24800000  1
  C  C107  1  0.49190000  0.10900000  0.74800000  1
  C  C108  1  0.30890000  0.56760000  0.56750000  1
  C  C109  1  0.80890000  0.43240000  0.06750000  1
  C  C110  1  0.97480000  0.73360000  0.24120000  1
  C  C111  1  0.47480000  0.26640000  0.74120000  1
  C  C112  1  0.93580000  0.81830000  0.22880000  1
  C  C113  1  0.43580000  0.18170000  0.72880000  1
  C  C114  1  0.20480000  0.70130000  0.53660000  1
  C  C115  1  0.70480000  0.29870000  0.03660000  1
  C  C116  1  0.65110000  0.53130000  0.98810000  1
  C  C117  1  0.15110000  0.46870000  0.48810000  1
  C  C118  1  0.83500000  0.83350000  0.19530000  1
  C  C119  1  0.33500000  0.16650000  0.69530000  1
  C  C120  1  0.18650000  0.63040000  0.56180000  1
  C  C121  1  0.68650000  0.36960000  0.06180000  1
  C  C122  1  0.08440000  0.54600000  0.47340000  1
  C  C123  1  0.58440000  0.45400000  0.97340000  1
  C  C124  1  0.99800000  0.98720000  0.43150000  1
  C  C125  1  0.49800000  0.01280000  0.93150000  1
  C  C126  1  0.70640000  0.89830000  0.15150000  1
  C  C127  1  0.20640000  0.10170000  0.65150000  1
  C  C128  1  0.56370000  0.57640000  0.01470000  1
  C  C129  1  0.06370000  0.42360000  0.51470000  1
  C  C130  1  0.95570000  0.83150000  0.40860000  1
  C  C131  1  0.45570000  0.16850000  0.90860000  1
  C  C132  1  0.68990000  0.80690000  0.14630000  1
  C  C133  1  0.18990000  0.19310000  0.64630000  1
  C  C134  1  0.07240000  0.76640000  0.52980000  1
  C  C135  1  0.57240000  0.23360000  0.02980000  1
  C  C136  1  0.93990000  0.92390000  0.40330000  1
  C  C137  1  0.43990000  0.07610000  0.90330000  1
  C  C138  1  0.89360000  0.77100000  0.38370000  1
  C  C139  1  0.39360000  0.22900000  0.88370000  1
  C  C140  1  0.63590000  0.95740000  0.12710000  1
  C  C141  1  0.13590000  0.04260000  0.62710000  1
  C  C142  1  0.86410000  0.95740000  0.37290000  1
  C  C143  1  0.36410000  0.04260000  0.87290000  1
  C  C144  1  0.60640000  0.77100000  0.11630000  1
  C  C145  1  0.10640000  0.22900000  0.61630000  1
  C  C146  1  0.56010000  0.92390000  0.09670000  1
  C  C147  1  0.06010000  0.07610000  0.59670000  1
  C  C148  1  0.42760000  0.76640000  0.97020000  1
  C  C149  1  0.92760000  0.23360000  0.47020000  1
  C  C150  1  0.81010000  0.80690000  0.35370000  1
  C  C151  1  0.31010000  0.19310000  0.85370000  1
  C  C152  1  0.54430000  0.83150000  0.09140000  1
  C  C153  1  0.04430000  0.16850000  0.59140000  1
  C  C154  1  0.93630000  0.57640000  0.48530000  1
  C  C155  1  0.43630000  0.42360000  0.98530000  1
  C  C156  1  0.79360000  0.89830000  0.34850000  1
  C  C157  1  0.29360000  0.10170000  0.84850000  1
  C  C158  1  0.50200000  0.98720000  0.06850000  1
  C  C159  1  0.00200000  0.01280000  0.56850000  1
  C  C160  1  0.41560000  0.54600000  0.02660000  1
  C  C161  1  0.91560000  0.45400000  0.52660000  1
  C  C162  1  0.31350000  0.63040000  0.93820000  1
  C  C163  1  0.81350000  0.36960000  0.43820000  1
  C  C164  1  0.66500000  0.83350000  0.30470000  1
  C  C165  1  0.16500000  0.16650000  0.80470000  1
  C  C166  1  0.84890000  0.53130000  0.51190000  1
  C  C167  1  0.34890000  0.46870000  0.01190000  1
  C  C168  1  0.29520000  0.70130000  0.96340000  1
  C  C169  1  0.79520000  0.29870000  0.46340000  1
  C  C170  1  0.56420000  0.81830000  0.27120000  1
  C  C171  1  0.06420000  0.18170000  0.77120000  1
  C  C172  1  0.52520000  0.73360000  0.25880000  1
  C  C173  1  0.02520000  0.26640000  0.75880000  1
  C  C174  1  0.19110000  0.56760000  0.93250000  1
  C  C175  1  0.69110000  0.43240000  0.43250000  1
  C  C176  1  0.50810000  0.89100000  0.25200000  1
  C  C177  1  0.00810000  0.10900000  0.75200000  1
  C  C178  1  0.43570000  0.72440000  0.22740000  1
  C  C179  1  0.93570000  0.27560000  0.72740000  1
  C  C180  1  0.41580000  0.87990000  0.22000000  1
  C  C181  1  0.91580000  0.12010000  0.72000000  1
  C  C182  1  0.63400000  0.83020000  0.45690000  1
  C  C183  1  0.13400000  0.16980000  0.95690000  1
  C  C184  1  0.37900000  0.79530000  0.20800000  1
  C  C185  1  0.87900000  0.20470000  0.70800000  1
  C  C186  1  0.15210000  0.70910000  0.98250000  1
  C  C187  1  0.65210000  0.29090000  0.48250000  1
  C  C188  1  0.69010000  0.56390000  0.52400000  1
  C  C189  1  0.19010000  0.43610000  0.02400000  1
  C  C190  1  0.53400000  0.79320000  0.42660000  1
  C  C191  1  0.03400000  0.20680000  0.92660000  1
  C  C192  1  0.27910000  0.78320000  0.17420000  1
  C  C193  1  0.77910000  0.21680000  0.67420000  1
  C  C194  1  0.52530000  0.70070000  0.42140000  1
  C  C195  1  0.02530000  0.29930000  0.92140000  1
  C  C196  1  0.04880000  0.57590000  0.95210000  1
  C  C197  1  0.54880000  0.42410000  0.45210000  1
  C  C198  1  0.03190000  0.64680000  0.97610000  1
  C  C199  1  0.53190000  0.35320000  0.47610000  1
  C  C200  1  0.45180000  0.85010000  0.40310000  1
  C  C201  1  0.95180000  0.14990000  0.90310000  1
  C  C202  1  0.43520000  0.66420000  0.39300000  1
  C  C203  1  0.93520000  0.33580000  0.89300000  1
  C  C204  1  0.14420000  0.72170000  0.13090000  1
  C  C205  1  0.64420000  0.27830000  0.63090000  1
  C  C206  1  0.13550000  0.81270000  0.12560000  1
  C  C207  1  0.63550000  0.18730000  0.62560000  1
  N  N208  1  0.90730000  0.52490000  0.95270000  1
  N  N209  1  0.40730000  0.47510000  0.45270000  1
  N  N210  1  0.27837000  0.85070000  0.34587000  1
  N  N211  1  0.77837000  0.14930000  0.84587000  1
  N  N212  1  0.26327000  0.70260000  0.33827000  1
  N  N213  1  0.76327000  0.29740000  0.83827000  1
  N  N214  1  0.87762000  0.63780000  0.99112000  1
  N  N215  1  0.37762000  0.36220000  0.49112000  1
  N  N216  1  0.79727000  0.91290000  0.18257000  1
  N  N217  1  0.29727000  0.08710000  0.68257000  1
  N  N218  1  0.77380000  0.76500000  0.17460000  1
  N  N219  1  0.27380000  0.23500000  0.67460000  1
  N  N220  1  0.72620000  0.76500000  0.32540000  1
  N  N221  1  0.22620000  0.23500000  0.82540000  1
  N  N222  1  0.70273000  0.91290000  0.31743000  1
  N  N223  1  0.20273000  0.08710000  0.81743000  1
  N  N224  1  0.62238000  0.63780000  0.50888000  1
  N  N225  1  0.12238000  0.36220000  0.00888000  1
  N  N226  1  0.23673000  0.70260000  0.16173000  1
  N  N227  1  0.73673000  0.29740000  0.66173000  1
  N  N228  1  0.22163000  0.85070000  0.15413000  1
  N  N229  1  0.72163000  0.14930000  0.65413000  1
  N  N230  1  0.59270000  0.52490000  0.54730000  1
  N  N231  1  0.09270000  0.47510000  0.04730000  1
  O  O232  1  0.88387000  0.91040000  0.03367000  1
  O  O233  1  0.38387000  0.08960000  0.53367000  1
  O  O234  1  0.76124000  0.78200000  0.02674000  1
  O  O235  1  0.26124000  0.21800000  0.52674000  1
  O  O236  1  0.57656000  0.94400000  0.92256000  1
  O  O237  1  0.07656000  0.05600000  0.42256000  1
  O  O238  1  0.56499000  0.75970000  0.95459000  1
  O  O239  1  0.06499000  0.24030000  0.45459000  1
  O  O240  1  0.09633000  0.82990000  0.50783000  1
  O  O241  1  0.59633000  0.17010000  0.00783000  1
  O  O242  1  0.96870000  0.97350000  0.46520000  1
  O  O243  1  0.46870000  0.02650000  0.96520000  1
  O  O244  1  0.53130000  0.97350000  0.03480000  1
  O  O245  1  0.03130000  0.02650000  0.53480000  1
  O  O246  1  0.40367000  0.82990000  0.99217000  1
  O  O247  1  0.90367000  0.17010000  0.49217000  1
  O  O248  1  0.93501000  0.75970000  0.54541000  1
  O  O249  1  0.43501000  0.24030000  0.04541000  1
  O  O250  1  0.92344000  0.94400000  0.57744000  1
  O  O251  1  0.42344000  0.05600000  0.07744000  1
  O  O252  1  0.73876000  0.78200000  0.47326000  1
  O  O253  1  0.23876000  0.21800000  0.97326000  1
  O  O254  1  0.61613000  0.91040000  0.46633000  1
  O  O255  1  0.11613000  0.08960000  0.96633000  1
