# generated using pymatgen
data_MnC4O3
_symmetry_space_group_name_H-M   'P 1'
_cell_length_a   7.10680000
_cell_length_b   15.44574907
_cell_length_c   15.44574907
_cell_angle_alpha   117.69183744
_cell_angle_beta   98.82234439
_cell_angle_gamma   98.82234439
_symmetry_Int_Tables_number   1
_chemical_formula_structural   MnC4O3
_chemical_formula_sum   'Mn6 C24 O18'
_cell_volume   1433.78757944
_cell_formula_units_Z   6
loop_
 _symmetry_equiv_pos_site_id
 _symmetry_equiv_pos_as_xyz
  1  'x, y, z'
loop_
 _atom_site_type_symbol
 _atom_site_label
 _atom_site_symmetry_multiplicity
 _atom_site_fract_x
 _atom_site_fract_y
 _atom_site_fract_z
 _atom_site_occupancy
  C  C0  1  0.08120000  0.54980000  0.45080000  1
  C  C1  1  0.90170000  0.56140000  0.47370000  1
  C  C2  1  0.83740000  0.52250000  0.52070000  1
  C  C3  1  0.78650000  0.44110000  0.61740000  1
  C  C4  1  0.16910000  0.38260000  0.82370000  1
  C  C5  1  0.65460000  0.82370000  0.44110000  1
  C  C6  1  0.34030000  0.91230000  0.43860000  1
  C  C7  1  0.53140000  0.90100000  0.45020000  1
  C  C8  1  0.36960000  0.45080000  0.90100000  1
  C  C9  1  0.57200000  0.47370000  0.91230000  1
  C  C10  1  0.31490000  0.99820000  0.47750000  1
  C  C11  1  0.31670000  0.47930000  0.00180000  1
  C  C12  1  0.68330000  0.52070000  0.99820000  1
  C  C13  1  0.68510000  0.00180000  0.52250000  1
  C  C14  1  0.42800000  0.52630000  0.08770000  1
  C  C15  1  0.63040000  0.54920000  0.09900000  1
  C  C16  1  0.46860000  0.09900000  0.54980000  1
  C  C17  1  0.65970000  0.08770000  0.56140000  1
  C  C18  1  0.34540000  0.17630000  0.55890000  1
  C  C19  1  0.83090000  0.61740000  0.17630000  1
  C  C20  1  0.21350000  0.55890000  0.38260000  1
  C  C21  1  0.16260000  0.47750000  0.47930000  1
  C  C22  1  0.09830000  0.43860000  0.52630000  1
  C  C23  1  0.91880000  0.45020000  0.54920000  1
  Mn  Mn24  1  0.67610000  0.32310000  0.71720000  1
  Mn  Mn25  1  0.35300000  0.39410000  0.67690000  1
  Mn  Mn26  1  0.04110000  0.71720000  0.39410000  1
  Mn  Mn27  1  0.95890000  0.28280000  0.60590000  1
  Mn  Mn28  1  0.64700000  0.60590000  0.32310000  1
  Mn  Mn29  1  0.32390000  0.67690000  0.28280000  1
  O  O30  1  0.79730000  0.36680000  0.63710000  1
  O  O31  1  0.86060000  0.62740000  0.43440000  1
  O  O32  1  0.62510000  0.46630000  0.61200000  1
  O  O33  1  0.16020000  0.36290000  0.72970000  1
  O  O34  1  0.56950000  0.72970000  0.36680000  1
  O  O35  1  0.23320000  0.80700000  0.37260000  1
  O  O36  1  0.57380000  0.43440000  0.80700000  1
  O  O37  1  0.01310000  0.38800000  0.85430000  1
  O  O38  1  0.84120000  0.85430000  0.46630000  1
  O  O39  1  0.15880000  0.14570000  0.53370000  1
  O  O40  1  0.98690000  0.61200000  0.14570000  1
  O  O41  1  0.42620000  0.56560000  0.19300000  1
  O  O42  1  0.76680000  0.19300000  0.62740000  1
  O  O43  1  0.43050000  0.27030000  0.63320000  1
  O  O44  1  0.83980000  0.63710000  0.27030000  1
  O  O45  1  0.37490000  0.53370000  0.38800000  1
  O  O46  1  0.13940000  0.37260000  0.56560000  1
  O  O47  1  0.20270000  0.63320000  0.36290000  1
