# generated using pymatgen
data_CoH10C11N2O5
_symmetry_space_group_name_H-M   'P 1'
_cell_length_a   11.31400000
_cell_length_b   11.31400000
_cell_length_c   25.24290000
_cell_angle_alpha   90.00000000
_cell_angle_beta   90.00000000
_cell_angle_gamma   90.00000000
_symmetry_Int_Tables_number   1
_chemical_formula_structural   CoH10C11N2O5
_chemical_formula_sum   'Co8 H80 C88 N16 O40'
_cell_volume   3231.25770217
_cell_formula_units_Z   8
loop_
 _symmetry_equiv_pos_site_id
 _symmetry_equiv_pos_as_xyz
  1  'x, y, z'
loop_
 _atom_site_type_symbol
 _atom_site_label
 _atom_site_symmetry_multiplicity
 _atom_site_fract_x
 _atom_site_fract_y
 _atom_site_fract_z
 _atom_site_occupancy
  Co  Co0  1  0.00000000  0.20330000  0.50000000  1
  Co  Co1  1  0.00000000  0.79670000  0.00000000  1
  Co  Co2  1  0.09629000  0.09629000  0.62500000  1
  Co  Co3  1  0.09629000  0.90371000  0.87500000  1
  Co  Co4  1  0.20330000  0.00000000  0.75000000  1
  Co  Co5  1  0.79670000  0.00000000  0.25000000  1
  Co  Co6  1  0.90371000  0.09629000  0.37500000  1
  Co  Co7  1  0.90371000  0.90371000  0.12500000  1
  H  H8  1  0.00010000  0.31190000  0.69610000  1
  H  H9  1  0.00010000  0.68810000  0.80390000  1
  H  H10  1  0.05970000  0.07600000  0.03920000  1
  H  H11  1  0.05970000  0.92400000  0.46080000  1
  H  H12  1  0.06630000  0.44970000  0.96320000  1
  H  H13  1  0.06630000  0.55030000  0.53680000  1
  H  H14  1  0.07600000  0.05970000  0.21080000  1
  H  H15  1  0.07600000  0.94030000  0.28920000  1
  H  H16  1  0.08100000  0.25580000  0.93890000  1
  H  H17  1  0.08100000  0.74420000  0.56110000  1
  H  H18  1  0.10750000  0.25840000  0.17090000  1
  H  H19  1  0.10750000  0.74160000  0.32910000  1
  H  H20  1  0.11330000  0.39830000  0.23360000  1
  H  H21  1  0.11330000  0.60170000  0.26640000  1
  H  H22  1  0.17110000  0.44780000  0.68100000  1
  H  H23  1  0.17110000  0.55220000  0.81900000  1
  H  H24  1  0.19740000  0.35780000  0.79600000  1
  H  H25  1  0.19740000  0.64220000  0.70400000  1
  H  H26  1  0.20480000  0.32550000  0.26800000  1
  H  H27  1  0.20480000  0.67450000  0.23200000  1
  H  H28  1  0.20670000  0.22300000  0.05260000  1
  H  H29  1  0.20670000  0.77700000  0.44740000  1
  H  H30  1  0.22300000  0.20670000  0.19740000  1
  H  H31  1  0.22300000  0.79330000  0.30260000  1
  H  H32  1  0.25580000  0.08100000  0.31110000  1
  H  H33  1  0.25580000  0.91900000  0.18890000  1
  H  H34  1  0.25840000  0.10750000  0.07910000  1
  H  H35  1  0.25840000  0.89250000  0.42090000  1
  H  H36  1  0.31190000  0.00010000  0.55390000  1
  H  H37  1  0.31190000  0.99990000  0.94610000  1
  H  H38  1  0.32550000  0.20480000  0.98200000  1
  H  H39  1  0.32550000  0.79520000  0.51800000  1
  H  H40  1  0.35780000  0.19740000  0.45400000  1
  H  H41  1  0.35780000  0.80260000  0.04600000  1
  H  H42  1  0.39830000  0.11330000  0.01640000  1
  H  H43  1  0.39830000  0.88670000  0.48360000  1
  H  H44  1  0.44780000  0.17110000  0.56900000  1
  H  H45  1  0.44780000  0.82890000  0.93100000  1
  H  H46  1  0.44970000  0.06630000  0.28680000  1
  H  H47  1  0.44970000  0.93370000  0.21320000  1
  H  H48  1  0.55030000  0.06630000  0.71320000  1
  H  H49  1  0.55030000  0.93370000  0.78680000  1
  H  H50  1  0.55220000  0.17110000  0.43100000  1
  H  H51  1  0.55220000  0.82890000  0.06900000  1
  H  H52  1  0.60170000  0.11330000  0.98360000  1
  H  H53  1  0.60170000  0.88670000  0.51640000  1
  H  H54  1  0.64220000  0.19740000  0.54600000  1
  H  H55  1  0.64220000  0.80260000  0.95400000  1
  H  H56  1  0.67450000  0.20480000  0.01800000  1
  H  H57  1  0.67450000  0.79520000  0.48200000  1
  H  H58  1  0.68810000  0.00010000  0.44610000  1
  H  H59  1  0.68810000  0.99990000  0.05390000  1
  H  H60  1  0.74160000  0.10750000  0.92090000  1
  H  H61  1  0.74160000  0.89250000  0.57910000  1
  H  H62  1  0.74420000  0.08100000  0.68890000  1
  H  H63  1  0.74420000  0.91900000  0.81110000  1
  H  H64  1  0.77700000  0.20670000  0.80260000  1
  H  H65  1  0.77700000  0.79330000  0.69740000  1
  H  H66  1  0.79330000  0.22300000  0.94740000  1
  H  H67  1  0.79330000  0.77700000  0.55260000  1
  H  H68  1  0.79520000  0.32550000  0.73200000  1
  H  H69  1  0.79520000  0.67450000  0.76800000  1
  H  H70  1  0.80260000  0.35780000  0.20400000  1
  H  H71  1  0.80260000  0.64220000  0.29600000  1
  H  H72  1  0.82890000  0.44780000  0.31900000  1
  H  H73  1  0.82890000  0.55220000  0.18100000  1
  H  H74  1  0.88670000  0.39830000  0.76640000  1
  H  H75  1  0.88670000  0.60170000  0.73360000  1
  H  H76  1  0.89250000  0.25840000  0.82910000  1
  H  H77  1  0.89250000  0.74160000  0.67090000  1
  H  H78  1  0.91900000  0.25580000  0.06110000  1
  H  H79  1  0.91900000  0.74420000  0.43890000  1
  H  H80  1  0.92400000  0.05970000  0.78920000  1
  H  H81  1  0.92400000  0.94030000  0.71080000  1
  H  H82  1  0.93370000  0.44970000  0.03680000  1
  H  H83  1  0.93370000  0.55030000  0.46320000  1
  H  H84  1  0.94030000  0.07600000  0.96080000  1
  H  H85  1  0.94030000  0.92400000  0.53920000  1
  H  H86  1  0.99990000  0.31190000  0.30390000  1
  H  H87  1  0.99990000  0.68810000  0.19610000  1
  C  C88  1  0.00810000  0.16340000  0.26560000  1
  C  C89  1  0.00810000  0.83660000  0.23440000  1
  C  C90  1  0.09090000  0.43100000  0.92910000  1
  C  C91  1  0.09090000  0.56900000  0.57090000  1
  C  C92  1  0.09710000  0.35230000  0.58960000  1
  C  C93  1  0.09710000  0.64770000  0.91040000  1
  C  C94  1  0.10030000  0.31510000  0.91490000  1
  C  C95  1  0.10030000  0.68490000  0.58510000  1
  C  C96  1  0.11660000  0.47920000  0.60550000  1
  C  C97  1  0.11660000  0.52080000  0.89450000  1
  C  C98  1  0.13230000  0.32080000  0.24760000  1
  C  C99  1  0.13230000  0.67920000  0.25240000  1
  C  C100  1  0.13940000  0.28600000  0.86360000  1
  C  C101  1  0.13940000  0.71400000  0.63640000  1
  C  C102  1  0.14130000  0.22880000  0.20370000  1
  C  C103  1  0.14130000  0.77120000  0.29630000  1
  C  C104  1  0.14410000  0.15740000  0.84650000  1
  C  C105  1  0.14410000  0.84260000  0.65350000  1
  C  C106  1  0.15490000  0.49260000  0.84330000  1
  C  C107  1  0.15490000  0.50740000  0.65670000  1
  C  C108  1  0.15740000  0.14410000  0.40350000  1
  C  C109  1  0.15740000  0.85590000  0.09650000  1
  C  C110  1  0.16340000  0.00810000  0.98440000  1
  C  C111  1  0.16340000  0.99190000  0.51560000  1
  C  C112  1  0.16820000  0.37630000  0.82950000  1
  C  C113  1  0.16820000  0.62370000  0.67050000  1
  C  C114  1  0.22880000  0.14130000  0.04630000  1
  C  C115  1  0.22880000  0.85870000  0.45370000  1
  C  C116  1  0.28600000  0.13940000  0.38640000  1
  C  C117  1  0.28600000  0.86060000  0.11360000  1
  C  C118  1  0.31510000  0.10030000  0.33510000  1
  C  C119  1  0.31510000  0.89970000  0.16490000  1
  C  C120  1  0.32080000  0.13230000  0.00240000  1
  C  C121  1  0.32080000  0.86770000  0.49760000  1
  C  C122  1  0.35230000  0.09710000  0.66040000  1
  C  C123  1  0.35230000  0.90290000  0.83960000  1
  C  C124  1  0.37630000  0.16820000  0.42050000  1
  C  C125  1  0.37630000  0.83180000  0.07950000  1
  C  C126  1  0.43100000  0.09090000  0.32090000  1
  C  C127  1  0.43100000  0.90910000  0.17910000  1
  C  C128  1  0.47920000  0.11660000  0.64450000  1
  C  C129  1  0.47920000  0.88340000  0.85550000  1
  C  C130  1  0.49260000  0.15490000  0.40670000  1
  C  C131  1  0.49260000  0.84510000  0.09330000  1
  C  C132  1  0.50740000  0.15490000  0.59330000  1
  C  C133  1  0.50740000  0.84510000  0.90670000  1
  C  C134  1  0.52080000  0.11660000  0.35550000  1
  C  C135  1  0.52080000  0.88340000  0.14450000  1
  C  C136  1  0.56900000  0.09090000  0.67910000  1
  C  C137  1  0.56900000  0.90910000  0.82090000  1
  C  C138  1  0.62370000  0.16820000  0.57950000  1
  C  C139  1  0.62370000  0.83180000  0.92050000  1
  C  C140  1  0.64770000  0.09710000  0.33960000  1
  C  C141  1  0.64770000  0.90290000  0.16040000  1
  C  C142  1  0.67920000  0.13230000  0.99760000  1
  C  C143  1  0.67920000  0.86770000  0.50240000  1
  C  C144  1  0.68490000  0.10030000  0.66490000  1
  C  C145  1  0.68490000  0.89970000  0.83510000  1
  C  C146  1  0.71400000  0.13940000  0.61360000  1
  C  C147  1  0.71400000  0.86060000  0.88640000  1
  C  C148  1  0.77120000  0.14130000  0.95370000  1
  C  C149  1  0.77120000  0.85870000  0.54630000  1
  C  C150  1  0.83180000  0.37630000  0.17050000  1
  C  C151  1  0.83180000  0.62370000  0.32950000  1
  C  C152  1  0.83660000  0.00810000  0.01560000  1
  C  C153  1  0.83660000  0.99190000  0.48440000  1
  C  C154  1  0.84260000  0.14410000  0.59650000  1
  C  C155  1  0.84260000  0.85590000  0.90350000  1
  C  C156  1  0.84510000  0.49260000  0.15670000  1
  C  C157  1  0.84510000  0.50740000  0.34330000  1
  C  C158  1  0.85590000  0.15740000  0.15350000  1
  C  C159  1  0.85590000  0.84260000  0.34650000  1
  C  C160  1  0.85870000  0.22880000  0.79630000  1
  C  C161  1  0.85870000  0.77120000  0.70370000  1
  C  C162  1  0.86060000  0.28600000  0.13640000  1
  C  C163  1  0.86060000  0.71400000  0.36360000  1
  C  C164  1  0.86770000  0.32080000  0.75240000  1
  C  C165  1  0.86770000  0.67920000  0.74760000  1
  C  C166  1  0.88340000  0.47920000  0.39450000  1
  C  C167  1  0.88340000  0.52080000  0.10550000  1
  C  C168  1  0.89970000  0.31510000  0.08510000  1
  C  C169  1  0.89970000  0.68490000  0.41490000  1
  C  C170  1  0.90290000  0.35230000  0.41040000  1
  C  C171  1  0.90290000  0.64770000  0.08960000  1
  C  C172  1  0.90910000  0.43100000  0.07090000  1
  C  C173  1  0.90910000  0.56900000  0.42910000  1
  C  C174  1  0.99190000  0.16340000  0.73440000  1
  C  C175  1  0.99190000  0.83660000  0.76560000  1
  N  N176  1  0.03530000  0.27320000  0.27930000  1
  N  N177  1  0.03530000  0.72680000  0.22070000  1
  N  N178  1  0.07420000  0.13000000  0.22370000  1
  N  N179  1  0.07420000  0.87000000  0.27630000  1
  N  N180  1  0.13000000  0.07420000  0.02630000  1
  N  N181  1  0.13000000  0.92580000  0.47370000  1
  N  N182  1  0.27320000  0.03530000  0.97070000  1
  N  N183  1  0.27320000  0.96470000  0.52930000  1
  N  N184  1  0.72680000  0.03530000  0.02930000  1
  N  N185  1  0.72680000  0.96470000  0.47070000  1
  N  N186  1  0.87000000  0.07420000  0.97370000  1
  N  N187  1  0.87000000  0.92580000  0.52630000  1
  N  N188  1  0.92580000  0.13000000  0.77630000  1
  N  N189  1  0.92580000  0.87000000  0.72370000  1
  N  N190  1  0.96470000  0.27320000  0.72070000  1
  N  N191  1  0.96470000  0.72680000  0.77930000  1
  O  O192  1  0.06610000  0.09720000  0.71130000  1
  O  O193  1  0.06610000  0.90280000  0.78870000  1
  O  O194  1  0.08550000  0.08930000  0.37500000  1
  O  O195  1  0.08550000  0.91070000  0.12500000  1
  O  O196  1  0.08860000  0.33370000  0.54030000  1
  O  O197  1  0.08860000  0.66630000  0.95970000  1
  O  O198  1  0.08930000  0.08550000  0.87500000  1
  O  O199  1  0.08930000  0.91450000  0.62500000  1
  O  O200  1  0.09510000  0.27580000  0.62530000  1
  O  O201  1  0.09510000  0.72420000  0.87470000  1
  O  O202  1  0.09720000  0.06610000  0.53870000  1
  O  O203  1  0.09720000  0.93390000  0.96130000  1
  O  O204  1  0.13570000  0.20150000  0.44500000  1
  O  O205  1  0.13570000  0.79850000  0.05500000  1
  O  O206  1  0.20150000  0.13570000  0.80500000  1
  O  O207  1  0.20150000  0.86430000  0.69500000  1
  O  O208  1  0.27580000  0.09510000  0.62470000  1
  O  O209  1  0.27580000  0.90490000  0.87530000  1
  O  O210  1  0.33370000  0.08860000  0.70970000  1
  O  O211  1  0.33370000  0.91140000  0.79030000  1
  O  O212  1  0.66630000  0.08860000  0.29030000  1
  O  O213  1  0.66630000  0.91140000  0.20970000  1
  O  O214  1  0.72420000  0.09510000  0.37530000  1
  O  O215  1  0.72420000  0.90490000  0.12470000  1
  O  O216  1  0.79850000  0.13570000  0.19500000  1
  O  O217  1  0.79850000  0.86430000  0.30500000  1
  O  O218  1  0.86430000  0.20150000  0.55500000  1
  O  O219  1  0.86430000  0.79850000  0.94500000  1
  O  O220  1  0.90280000  0.06610000  0.46130000  1
  O  O221  1  0.90280000  0.93390000  0.03870000  1
  O  O222  1  0.90490000  0.27580000  0.37470000  1
  O  O223  1  0.90490000  0.72420000  0.12530000  1
  O  O224  1  0.91070000  0.08550000  0.12500000  1
  O  O225  1  0.91070000  0.91450000  0.37500000  1
  O  O226  1  0.91140000  0.33370000  0.45970000  1
  O  O227  1  0.91140000  0.66630000  0.04030000  1
  O  O228  1  0.91450000  0.08930000  0.62500000  1
  O  O229  1  0.91450000  0.91070000  0.87500000  1
  O  O230  1  0.93390000  0.09720000  0.28870000  1
  O  O231  1  0.93390000  0.90280000  0.21130000  1
