# generated using pymatgen
data_Cu4H16C32N16ClO8
_symmetry_space_group_name_H-M   'P 1'
_cell_length_a   13.17900000
_cell_length_b   13.17800000
_cell_length_c   13.87782103
_cell_angle_alpha   118.34506799
_cell_angle_beta   118.34739568
_cell_angle_gamma   90.00010000
_symmetry_Int_Tables_number   1
_chemical_formula_structural   Cu4H16C32N16ClO8
_chemical_formula_sum   'Cu4 H16 C32 N16 Cl1 O8'
_cell_volume   1786.04174391
_cell_formula_units_Z   1
loop_
 _symmetry_equiv_pos_site_id
 _symmetry_equiv_pos_as_xyz
  1  'x, y, z'
loop_
 _atom_site_type_symbol
 _atom_site_label
 _atom_site_symmetry_multiplicity
 _atom_site_fract_x
 _atom_site_fract_y
 _atom_site_fract_z
 _atom_site_occupancy
  Cu  Cu0  1  0.91055000  0.10571000  0.82110000  1
  Cu  Cu1  1  0.91055000  0.71539000  0.82110000  1
  Cu  Cu2  1  0.71542000  0.91059000  0.82118000  1
  Cu  Cu3  1  0.10576000  0.91059000  0.82118000  1
  H  H4  1  0.83790000  0.05330000  0.47820000  1
  H  H5  1  0.64030000  0.05330000  0.47820000  1
  H  H6  1  0.76580000  0.29210000  0.26820000  1
  H  H7  1  0.50240000  0.29210000  0.26820000  1
  H  H8  1  0.83790000  0.42490000  0.47820000  1
  H  H9  1  0.64030000  0.42490000  0.47820000  1
  H  H10  1  0.97470000  0.50290000  0.26720000  1
  H  H11  1  0.29250000  0.50290000  0.26720000  1
  H  H12  1  0.42830000  0.64100000  0.47640000  1
  H  H13  1  0.04810000  0.64100000  0.47640000  1
  H  H14  1  0.97470000  0.76430000  0.26720000  1
  H  H15  1  0.29250000  0.76430000  0.26720000  1
  H  H16  1  0.42830000  0.83540000  0.47640000  1
  H  H17  1  0.04810000  0.83540000  0.47640000  1
  H  H18  1  0.76580000  0.97610000  0.26820000  1
  H  H19  1  0.50240000  0.97610000  0.26820000  1
  C  C20  1  0.87090000  0.26680000  0.13720000  1
  C  C21  1  0.26630000  0.26680000  0.13720000  1
  C  C22  1  0.83450000  0.35810000  0.31560000  1
  C  C23  1  0.48110000  0.35810000  0.31560000  1
  C  C24  1  0.89020000  0.36180000  0.25120000  1
  C  C25  1  0.36100000  0.36180000  0.25120000  1
  C  C26  1  0.87230000  0.44130000  0.43860000  1
  C  C27  1  0.56630000  0.44130000  0.43860000  1
  C  C28  1  0.95610000  0.48100000  0.31440000  1
  C  C29  1  0.35830000  0.48100000  0.31440000  1
  C  C30  1  0.96060000  0.55240000  0.51300000  1
  C  C31  1  0.55240000  0.55240000  0.51300000  1
  C  C32  1  0.99420000  0.56600000  0.43760000  1
  C  C33  1  0.44340000  0.56600000  0.43760000  1
  C  C34  1  0.98790000  0.64510000  0.63340000  1
  C  C35  1  0.64550000  0.64510000  0.63340000  1
  C  C36  1  0.95610000  0.83340000  0.31440000  1
  C  C37  1  0.35830000  0.83340000  0.31440000  1
  C  C38  1  0.87090000  0.87040000  0.13720000  1
  C  C39  1  0.26630000  0.87040000  0.13720000  1
  C  C40  1  0.99420000  0.87160000  0.43760000  1
  C  C41  1  0.44340000  0.87160000  0.43760000  1
  C  C42  1  0.89020000  0.88940000  0.25120000  1
  C  C43  1  0.36100000  0.88940000  0.25120000  1
  C  C44  1  0.83450000  0.95750000  0.31560000  1
  C  C45  1  0.48110000  0.95750000  0.31560000  1
  C  C46  1  0.96060000  0.96060000  0.51300000  1
  C  C47  1  0.55240000  0.96060000  0.51300000  1
  C  C48  1  0.98790000  0.98830000  0.63340000  1
  C  C49  1  0.64550000  0.98830000  0.63340000  1
  C  C50  1  0.87230000  0.99730000  0.43860000  1
  C  C51  1  0.56630000  0.99730000  0.43860000  1
  N  N52  1  0.79450000  0.09180000  0.95980000  1
  N  N53  1  0.16530000  0.09180000  0.95980000  1
  N  N54  1  0.79111000  0.15161000  0.06102000  1
  N  N55  1  0.26991000  0.15161000  0.06102000  1
  N  N56  1  0.86770000  0.16750000  0.96040000  1
  N  N57  1  0.09270000  0.16750000  0.96040000  1
  N  N58  1  0.90843000  0.27083000  0.06106000  1
  N  N59  1  0.15263000  0.27083000  0.06106000  1
  N  N60  1  0.90843000  0.79023000  0.06106000  1
  N  N61  1  0.15263000  0.79023000  0.06106000  1
  N  N62  1  0.86770000  0.79290000  0.96040000  1
  N  N63  1  0.09270000  0.79290000  0.96040000  1
  N  N64  1  0.79450000  0.86800000  0.95980000  1
  N  N65  1  0.16530000  0.86800000  0.95980000  1
  N  N66  1  0.79111000  0.90941000  0.06102000  1
  N  N67  1  0.26991000  0.90941000  0.06102000  1
  Cl  Cl68  1  0.90222000  0.90222000  0.80444000  1
  O  O69  1  0.93840000  0.05270000  0.68420000  1
  O  O70  1  0.74580000  0.05270000  0.68420000  1
  O  O71  1  0.93840000  0.63150000  0.68420000  1
  O  O72  1  0.74580000  0.63150000  0.68420000  1
  O  O73  1  0.63020000  0.74450000  0.68320000  1
  O  O74  1  0.05300000  0.74450000  0.68320000  1
  O  O75  1  0.63020000  0.93870000  0.68320000  1
  O  O76  1  0.05300000  0.93870000  0.68320000  1
