# generated using pymatgen
data_Co3H40C68(NO3)4
_symmetry_space_group_name_H-M   'P 1'
_cell_length_a   15.83108341
_cell_length_b   15.83108341
_cell_length_c   16.79290000
_cell_angle_alpha   68.20954012
_cell_angle_beta   68.20954012
_cell_angle_gamma   69.98819134
_symmetry_Int_Tables_number   1
_chemical_formula_structural   Co3H40C68(NO3)4
_chemical_formula_sum   'Co6 H80 C136 N8 O24'
_cell_volume   3525.27704781
_cell_formula_units_Z   2
loop_
 _symmetry_equiv_pos_site_id
 _symmetry_equiv_pos_as_xyz
  1  'x, y, z'
loop_
 _atom_site_type_symbol
 _atom_site_label
 _atom_site_symmetry_multiplicity
 _atom_site_fract_x
 _atom_site_fract_y
 _atom_site_fract_z
 _atom_site_occupancy
  C  C0  1  0.35180000  0.69020000  0.55040000  1
  C  C1  1  0.69020000  0.35180000  0.05040000  1
  C  C2  1  0.46220000  0.58340000  0.63150000  1
  C  C3  1  0.58340000  0.46220000  0.13150000  1
  C  C4  1  0.27910000  0.78130000  0.93260000  1
  C  C5  1  0.78130000  0.27910000  0.43260000  1
  C  C6  1  0.43050000  0.67210000  0.57590000  1
  C  C7  1  0.67210000  0.43050000  0.07590000  1
  C  C8  1  0.54690000  0.55950000  0.65610000  1
  C  C9  1  0.55950000  0.54690000  0.15610000  1
  C  C10  1  0.41110000  0.71390000  0.27460000  1
  C  C11  1  0.71390000  0.41110000  0.77460000  1
  C  C12  1  0.31070000  0.82190000  0.95940000  1
  C  C13  1  0.82190000  0.31070000  0.45940000  1
  C  C14  1  0.53120000  0.61640000  0.18020000  1
  C  C15  1  0.61640000  0.53120000  0.68020000  1
  C  C16  1  0.38770000  0.78430000  0.31660000  1
  C  C17  1  0.78430000  0.38770000  0.81660000  1
  C  C18  1  0.50300000  0.69440000  0.21700000  1
  C  C19  1  0.69440000  0.50300000  0.71700000  1
  C  C20  1  0.35650000  0.86410000  0.98970000  1
  C  C21  1  0.86410000  0.35650000  0.48970000  1
  C  C22  1  0.30880000  0.91260000  0.05420000  1
  C  C23  1  0.91260000  0.30880000  0.55420000  1
  C  C24  1  0.21480000  0.06660000  0.72680000  1
  C  C25  1  0.06660000  0.21480000  0.22680000  1
  C  C26  1  0.45080000  0.83380000  0.30190000  1
  C  C27  1  0.83380000  0.45080000  0.80190000  1
  C  C28  1  0.29550000  0.99590000  0.71460000  1
  C  C29  1  0.99590000  0.29550000  0.21460000  1
  C  C30  1  0.35680000  0.94940000  0.08400000  1
  C  C31  1  0.94940000  0.35680000  0.58400000  1
  C  C32  1  0.45320000  0.85600000  0.95120000  1
  C  C33  1  0.85600000  0.45320000  0.45120000  1
  C  C34  1  0.18490000  0.12630000  0.65280000  1
  C  C35  1  0.12630000  0.18490000  0.15280000  1
  C  C36  1  0.56540000  0.74780000  0.19950000  1
  C  C37  1  0.74780000  0.56540000  0.69950000  1
  C  C38  1  0.34450000  0.98710000  0.62900000  1
  C  C39  1  0.98710000  0.34450000  0.12900000  1
  C  C40  1  0.42633333  0.90693333  0.34920000  1
  C  C41  1  0.90693333  0.42633333  0.84920000  1
  C  C42  1  0.47890000  0.85570000  0.67430000  1
  C  C43  1  0.85570000  0.47890000  0.17430000  1
  C  C44  1  0.23630000  0.11330000  0.56810000  1
  C  C45  1  0.11330000  0.23630000  0.06810000  1
  C  C46  1  0.43560000  0.91740000  0.60790000  1
  C  C47  1  0.91740000  0.43560000  0.10790000  1
  C  C48  1  0.54080000  0.81560000  0.24310000  1
  C  C49  1  0.81560000  0.54080000  0.74310000  1
  C  C50  1  0.56630000  0.79830000  0.64760000  1
  C  C51  1  0.79830000  0.56630000  0.14760000  1
  C  C52  1  0.45380000  0.94040000  0.04590000  1
  C  C53  1  0.94040000  0.45380000  0.54590000  1
  C  C54  1  0.50040000  0.89440000  0.98080000  1
  C  C55  1  0.89440000  0.50040000  0.48080000  1
  C  C56  1  0.60880000  0.80360000  0.55720000  1
  C  C57  1  0.80360000  0.60880000  0.05720000  1
  C  C58  1  0.55930000  0.86710000  0.49640000  1
  C  C59  1  0.86710000  0.55930000  0.99640000  1
  C  C60  1  0.28400000  0.17060000  0.83300000  1
  C  C61  1  0.17060000  0.28400000  0.33300000  1
  C  C62  1  0.36770000  0.10410000  0.81730000  1
  C  C63  1  0.10410000  0.36770000  0.31730000  1
  C  C64  1  0.50690000  0.98410000  0.07240000  1
  C  C65  1  0.98410000  0.50690000  0.57240000  1
  C  C66  1  0.32700000  0.17580000  0.28570000  1
  C  C67  1  0.17580000  0.32700000  0.78570000  1
  C  C68  1  0.26390000  0.25210000  0.76620000  1
  C  C69  1  0.25210000  0.26390000  0.26620000  1
  C  C70  1  0.43330000  0.11710000  0.73250000  1
  C  C71  1  0.11710000  0.43330000  0.23250000  1
  C  C72  1  0.52090000  0.04970000  0.71680000  1
  C  C73  1  0.04970000  0.52090000  0.21680000  1
  C  C74  1  0.71620000  0.85720000  0.75180000  1
  C  C75  1  0.85720000  0.71620000  0.25180000  1
  C  C76  1  0.59350000  0.99330000  0.70290000  1
  C  C77  1  0.99330000  0.59350000  0.20290000  1
  C  C78  1  0.32730000  0.26510000  0.68050000  1
  C  C79  1  0.26510000  0.32730000  0.18050000  1
  C  C80  1  0.79290000  0.80130000  0.23240000  1
  C  C81  1  0.80130000  0.79290000  0.73240000  1
  C  C82  1  0.68230000  0.92670000  0.68260000  1
  C  C83  1  0.92670000  0.68230000  0.18260000  1
  C  C84  1  0.41240000  0.19720000  0.66330000  1
  C  C85  1  0.19720000  0.41240000  0.16330000  1
  C  C86  1  0.79970000  0.85470000  0.14220000  1
  C  C87  1  0.85470000  0.79970000  0.64220000  1
  C  C88  1  0.38130000  0.28090000  0.93710000  1
  C  C89  1  0.28090000  0.38130000  0.43710000  1
  C  C90  1  0.73540000  0.93300000  0.59400000  1
  C  C91  1  0.93300000  0.73540000  0.09400000  1
  C  C92  1  0.45040000  0.21940000  0.97780000  1
  C  C93  1  0.21940000  0.45040000  0.47780000  1
  C  C94  1  0.73090000  0.94850000  0.11920000  1
  C  C95  1  0.94850000  0.73090000  0.61920000  1
  C  C96  1  0.55240000  0.12960000  0.34630000  1
  C  C97  1  0.12960000  0.55240000  0.84630000  1
  C  C98  1  0.82030000  0.86890000  0.57590000  1
  C  C99  1  0.86890000  0.82030000  0.07590000  1
  C  C100  1  0.40330000  0.30610000  0.84600000  1
  C  C101  1  0.30610000  0.40330000  0.34600000  1
  C  C102  1  0.61260000  0.14900000  0.45490000  1
  C  C103  1  0.14900000  0.61260000  0.95490000  1
  C  C104  1  0.49180000  0.27040000  0.79620000  1
  C  C105  1  0.27040000  0.49180000  0.29620000  1
  C  C106  1  0.55700000  0.20860000  0.84330000  1
  C  C107  1  0.20860000  0.55700000  0.34330000  1
  C  C108  1  0.61270000  0.17050000  0.36680000  1
  C  C109  1  0.17050000  0.61270000  0.86680000  1
  C  C110  1  0.65360000  0.16280000  0.79720000  1
  C  C111  1  0.16280000  0.65360000  0.29720000  1
  C  C112  1  0.79190000  0.05290000  0.81530000  1
  C  C113  1  0.05290000  0.79190000  0.31530000  1
  C  C114  1  0.66810000  0.18350000  0.47720000  1
  C  C115  1  0.18350000  0.66810000  0.97720000  1
  C  C116  1  0.63990000  0.22010000  0.04700000  1
  C  C117  1  0.22010000  0.63990000  0.54700000  1
  C  C118  1  0.68620000  0.17660000  0.70390000  1
  C  C119  1  0.17660000  0.68620000  0.20390000  1
  C  C120  1  0.53350000  0.33070000  0.13540000  1
  C  C121  1  0.33070000  0.53350000  0.63540000  1
  C  C122  1  0.82930000  0.06290000  0.72430000  1
  C  C123  1  0.06290000  0.82930000  0.22430000  1
  C  C124  1  0.66810000  0.22950000  0.29970000  1
  C  C125  1  0.22950000  0.66810000  0.79970000  1
  C  C126  1  0.77570000  0.12770000  0.66680000  1
  C  C127  1  0.12770000  0.77570000  0.16680000  1
  C  C128  1  0.62200000  0.30100000  0.08000000  1
  C  C129  1  0.30100000  0.62200000  0.58000000  1
  C  C130  1  0.51520000  0.41140000  0.16030000  1
  C  C131  1  0.41140000  0.51520000  0.66030000  1
  C  C132  1  0.72620000  0.24180000  0.40840000  1
  C  C133  1  0.24180000  0.72620000  0.90840000  1
  C  C134  1  0.72370000  0.26490000  0.31970000  1
  C  C135  1  0.26490000  0.72370000  0.81970000  1
  Co  Co136  1  0.39992000  0.02380000  0.43104000  1
  Co  Co137  1  0.02380000  0.39992000  0.93104000  1
  Co  Co138  1  0.52815000  0.06471000  0.20443000  1
  Co  Co139  1  0.06471000  0.52815000  0.70443000  1
  Co  Co140  1  0.64927000  0.09173000  0.98663000  1
  Co  Co141  1  0.09173000  0.64927000  0.48663000  1
  H  H142  1  0.36680000  0.68040000  0.28440000  1
  H  H143  1  0.68040000  0.36680000  0.78440000  1
  H  H144  1  0.30510000  0.76070000  0.77330000  1
  H  H145  1  0.76070000  0.30510000  0.27330000  1
  H  H146  1  0.33140000  0.74980000  0.51210000  1
  H  H147  1  0.74980000  0.33140000  0.01210000  1
  H  H148  1  0.32680000  0.79780000  0.35590000  1
  H  H149  1  0.79780000  0.32680000  0.85590000  1
  H  H150  1  0.24290000  0.92070000  0.07840000  1
  H  H151  1  0.92070000  0.24290000  0.57840000  1
  H  H152  1  0.46370000  0.71930000  0.55620000  1
  H  H153  1  0.71930000  0.46370000  0.05620000  1
  H  H154  1  0.18080000  0.07400000  0.78480000  1
  H  H155  1  0.07400000  0.18080000  0.28480000  1
  H  H156  1  0.31710000  0.95370000  0.76430000  1
  H  H157  1  0.95370000  0.31710000  0.26430000  1
  H  H158  1  0.44940000  0.85320000  0.73550000  1
  H  H159  1  0.85320000  0.44940000  0.23550000  1
  H  H160  1  0.32390000  0.98030000  0.12960000  1
  H  H161  1  0.98030000  0.32390000  0.62960000  1
  H  H162  1  0.17560000  0.13000000  0.15930000  1
  H  H163  1  0.13000000  0.17560000  0.65930000  1
  H  H164  1  0.48640000  0.82500000  0.90580000  1
  H  H165  1  0.82500000  0.48640000  0.40580000  1
  H  H166  1  0.59750000  0.75550000  0.69090000  1
  H  H167  1  0.75550000  0.59750000  0.19090000  1
  H  H168  1  0.62510000  0.73770000  0.15740000  1
  H  H169  1  0.73770000  0.62510000  0.65740000  1
  H  H170  1  0.21540000  0.15400000  0.51750000  1
  H  H171  1  0.15400000  0.21540000  0.01750000  1
  H  H172  1  0.23970000  0.16030000  0.89020000  1
  H  H173  1  0.16030000  0.23970000  0.39020000  1
  H  H174  1  0.38090000  0.04950000  0.86400000  1
  H  H175  1  0.04950000  0.38090000  0.36400000  1
  H  H176  1  0.58470000  0.84950000  0.23320000  1
  H  H177  1  0.66900000  0.76520000  0.53770000  1
  H  H178  1  0.76520000  0.66900000  0.03770000  1
  H  H179  1  0.84950000  0.58470000  0.73320000  1
  H  H180  1  0.56590000  0.88850000  0.95510000  1
  H  H181  1  0.88850000  0.56590000  0.45510000  1
  H  H182  1  0.58670000  0.87090000  0.43470000  1
  H  H183  1  0.87090000  0.58670000  0.93470000  1
  H  H184  1  0.68100000  0.85380000  0.81220000  1
  H  H185  1  0.85380000  0.68100000  0.31220000  1
  H  H186  1  0.74490000  0.82350000  0.27940000  1
  H  H187  1  0.82350000  0.74490000  0.77940000  1
  H  H188  1  0.32050000  0.30450000  0.97170000  1
  H  H189  1  0.30450000  0.32050000  0.47170000  1
  H  H190  1  0.31960000  0.31320000  0.13400000  1
  H  H191  1  0.31320000  0.31960000  0.63400000  1
  H  H192  1  0.43620000  0.20220000  0.04100000  1
  H  H193  1  0.20220000  0.43620000  0.54100000  1
  H  H194  1  0.45510000  0.20570000  0.60520000  1
  H  H195  1  0.20570000  0.45510000  0.10520000  1
  H  H196  1  0.57380000  0.11020000  0.50070000  1
  H  H197  1  0.11020000  0.57380000  0.00070000  1
  H  H198  1  0.71350000  0.98070000  0.54660000  1
  H  H199  1  0.98070000  0.71350000  0.04660000  1
  H  H200  1  0.35760000  0.34840000  0.81660000  1
  H  H201  1  0.34840000  0.35760000  0.31660000  1
  H  H202  1  0.85590000  0.87310000  0.51540000  1
  H  H203  1  0.87310000  0.85590000  0.01540000  1
  H  H204  1  0.48670000  0.29670000  0.15570000  1
  H  H205  1  0.29670000  0.48670000  0.65570000  1
  H  H206  1  0.50790000  0.28690000  0.73290000  1
  H  H207  1  0.28690000  0.50790000  0.23290000  1
  H  H208  1  0.66740000  0.16820000  0.53770000  1
  H  H209  1  0.16820000  0.66740000  0.03770000  1
  H  H210  1  0.82800000  0.00960000  0.85440000  1
  H  H211  1  0.00960000  0.82800000  0.35440000  1
  H  H212  1  0.64760000  0.21860000  0.66680000  1
  H  H213  1  0.21860000  0.64760000  0.16680000  1
  H  H214  1  0.45520000  0.43240000  0.19770000  1
  H  H215  1  0.43240000  0.45520000  0.69770000  1
  H  H216  1  0.66730000  0.24530000  0.23950000  1
  H  H217  1  0.24530000  0.66730000  0.73950000  1
  H  H218  1  0.88950000  0.02690000  0.70140000  1
  H  H219  1  0.02690000  0.88950000  0.20140000  1
  H  H220  1  0.80000000  0.13780000  0.60400000  1
  H  H221  1  0.13780000  0.80000000  0.10400000  1
  N  N222  1  0.31420000  0.04460000  0.55690000  1
  N  N223  1  0.04460000  0.31420000  0.05690000  1
  N  N224  1  0.47530000  0.92250000  0.52150000  1
  N  N225  1  0.92250000  0.47530000  0.02150000  1
  N  N226  1  0.53600000  0.18380000  0.93090000  1
  N  N227  1  0.18380000  0.53600000  0.43090000  1
  N  N228  1  0.70650000  0.10230000  0.85060000  1
  N  N229  1  0.10230000  0.70650000  0.35060000  1
  O  O230  1  0.35760000  0.91020000  0.41730000  1
  O  O231  1  0.91020000  0.35760000  0.91730000  1
  O  O232  1  0.30950000  0.12210000  0.36400000  1
  O  O233  1  0.12210000  0.30950000  0.86400000  1
  O  O234  1  0.48070000  0.96230000  0.32360000  1
  O  O235  1  0.96230000  0.48070000  0.82360000  1
  O  O236  1  0.46640000  0.02100000  0.13530000  1
  O  O237  1  0.02100000  0.46640000  0.63530000  1
  O  O238  1  0.40150000  0.16410000  0.22270000  1
  O  O239  1  0.16410000  0.40150000  0.72270000  1
  O  O240  1  0.59050000  0.98210000  0.02380000  1
  O  O241  1  0.98210000  0.59050000  0.52380000  1
  O  O242  1  0.48070000  0.11030000  0.40900000  1
  O  O243  1  0.11030000  0.48070000  0.90900000  1
  O  O244  1  0.65960000  0.96900000  0.18140000  1
  O  O245  1  0.96900000  0.65960000  0.68140000  1
  O  O246  1  0.58010000  0.11410000  0.27180000  1
  O  O247  1  0.11410000  0.58010000  0.77180000  1
  O  O248  1  0.58340000  0.16420000  0.08570000  1
  O  O249  1  0.16420000  0.58340000  0.58570000  1
  O  O250  1  0.75250000  0.99650000  0.03950000  1
  O  O251  1  0.99650000  0.75250000  0.53950000  1
  O  O252  1  0.70500000  0.20760000  0.97740000  1
  O  O253  1  0.20760000  0.70500000  0.47740000  1
