# generated using pymatgen
data_Sm2Co3H16C40(NO3)8
_symmetry_space_group_name_H-M   'P 1'
_cell_length_a   7.59390000
_cell_length_b   10.44600000
_cell_length_c   30.51300000
_cell_angle_alpha   99.00000000
_cell_angle_beta   90.00000000
_cell_angle_gamma   90.00000000
_symmetry_Int_Tables_number   1
_chemical_formula_structural   Sm2Co3H16C40(NO3)8
_chemical_formula_sum   'Sm4 Co6 H32 C80 N16 O48'
_cell_volume   2390.67054902
_cell_formula_units_Z   2
loop_
 _symmetry_equiv_pos_site_id
 _symmetry_equiv_pos_as_xyz
  1  'x, y, z'
loop_
 _atom_site_type_symbol
 _atom_site_label
 _atom_site_symmetry_multiplicity
 _atom_site_fract_x
 _atom_site_fract_y
 _atom_site_fract_z
 _atom_site_occupancy
  Sm  Sm0  1  0.13056000  0.55075000  0.26805000  1
  Sm  Sm1  1  0.36944000  0.55075000  0.76805000  1
  Sm  Sm2  1  0.63056000  0.44925000  0.23195000  1
  Sm  Sm3  1  0.86944000  0.44925000  0.73195000  1
  Co  Co4  1  0.00000000  0.00000000  0.50000000  1
  Co  Co5  1  0.05068000  0.71389000  0.63010000  1
  Co  Co6  1  0.44932000  0.71389000  0.13010000  1
  Co  Co7  1  0.50000000  0.00000000  0.00000000  1
  Co  Co8  1  0.55068000  0.28611000  0.86990000  1
  Co  Co9  1  0.94932000  0.28611000  0.36990000  1
  H  H10  1  0.03130000  0.68980000  0.12450000  1
  H  H11  1  0.05080000  0.24460000  0.58230000  1
  H  H12  1  0.07030000  0.02680000  0.68580000  1
  H  H13  1  0.10820000  0.03110000  0.93780000  1
  H  H14  1  0.12120000  0.87520000  0.01430000  1
  H  H15  1  0.15070000  0.79800000  0.87720000  1
  H  H16  1  0.18160000  0.92180000  0.78240000  1
  H  H17  1  0.18520000  0.16610000  0.83920000  1
  H  H18  1  0.31480000  0.16610000  0.33920000  1
  H  H19  1  0.31840000  0.92180000  0.28240000  1
  H  H20  1  0.34930000  0.79800000  0.37720000  1
  H  H21  1  0.37880000  0.87520000  0.51430000  1
  H  H22  1  0.39180000  0.03110000  0.43780000  1
  H  H23  1  0.42970000  0.02680000  0.18580000  1
  H  H24  1  0.44920000  0.24460000  0.08230000  1
  H  H25  1  0.46870000  0.68980000  0.62450000  1
  H  H26  1  0.53130000  0.31020000  0.37550000  1
  H  H27  1  0.55080000  0.75540000  0.91770000  1
  H  H28  1  0.57030000  0.97320000  0.81420000  1
  H  H29  1  0.60820000  0.96890000  0.56220000  1
  H  H30  1  0.62120000  0.12480000  0.48570000  1
  H  H31  1  0.65070000  0.20200000  0.62280000  1
  H  H32  1  0.68160000  0.07820000  0.71760000  1
  H  H33  1  0.68520000  0.83390000  0.66080000  1
  H  H34  1  0.81480000  0.83390000  0.16080000  1
  H  H35  1  0.81840000  0.07820000  0.21760000  1
  H  H36  1  0.84930000  0.20200000  0.12280000  1
  H  H37  1  0.87880000  0.12480000  0.98570000  1
  H  H38  1  0.89180000  0.96890000  0.06220000  1
  H  H39  1  0.92970000  0.97320000  0.31420000  1
  H  H40  1  0.94920000  0.75540000  0.41770000  1
  H  H41  1  0.96870000  0.31020000  0.87550000  1
  C  C42  1  0.00030000  0.26360000  0.26723000  1
  C  C43  1  0.00720000  0.95910000  0.18447000  1
  C  C44  1  0.01050000  0.58520000  0.83186000  1
  C  C45  1  0.02910000  0.78970000  0.54494000  1
  C  C46  1  0.03090000  0.78900000  0.88517000  1
  C  C47  1  0.05210000  0.11910000  0.08418000  1
  C  C48  1  0.05430000  0.77180000  0.14184000  1
  C  C49  1  0.05900000  0.93250000  0.78811000  1
  C  C50  1  0.06240000  0.15900000  0.23047000  1
  C  C51  1  0.06850000  0.31620000  0.13336000  1
  C  C52  1  0.06940000  0.10530000  0.42301000  1
  C  C53  1  0.12690000  0.25040000  0.73493000  1
  C  C54  1  0.12820000  0.95480000  0.03416000  1
  C  C55  1  0.14650000  0.44570000  0.63995000  1
  C  C56  1  0.17060000  0.23650000  0.59040000  1
  C  C57  1  0.18810000  0.94050000  0.17559000  1
  C  C58  1  0.19210000  0.03600000  0.69261000  1
  C  C59  1  0.22570000  0.13280000  0.07106000  1
  C  C60  1  0.24450000  0.14530000  0.21997000  1
  C  C61  1  0.24830000  0.32720000  0.12199000  1
  C  C62  1  0.25170000  0.32720000  0.62199000  1
  C  C63  1  0.25550000  0.14530000  0.71997000  1
  C  C64  1  0.27430000  0.13280000  0.57106000  1
  C  C65  1  0.30790000  0.03600000  0.19261000  1
  C  C66  1  0.31190000  0.94050000  0.67559000  1
  C  C67  1  0.32940000  0.23650000  0.09040000  1
  C  C68  1  0.35350000  0.44570000  0.13995000  1
  C  C69  1  0.37180000  0.95480000  0.53416000  1
  C  C70  1  0.37310000  0.25040000  0.23493000  1
  C  C71  1  0.43060000  0.10530000  0.92301000  1
  C  C72  1  0.43150000  0.31620000  0.63336000  1
  C  C73  1  0.43760000  0.15900000  0.73047000  1
  C  C74  1  0.44100000  0.93250000  0.28811000  1
  C  C75  1  0.44570000  0.77180000  0.64184000  1
  C  C76  1  0.44790000  0.11910000  0.58418000  1
  C  C77  1  0.46910000  0.78900000  0.38517000  1
  C  C78  1  0.47090000  0.78970000  0.04494000  1
  C  C79  1  0.48950000  0.58520000  0.33186000  1
  C  C80  1  0.49280000  0.95910000  0.68447000  1
  C  C81  1  0.49970000  0.26360000  0.76723000  1
  C  C82  1  0.50030000  0.73640000  0.23277000  1
  C  C83  1  0.50720000  0.04090000  0.31553000  1
  C  C84  1  0.51050000  0.41480000  0.66814000  1
  C  C85  1  0.52910000  0.21030000  0.95506000  1
  C  C86  1  0.53090000  0.21100000  0.61483000  1
  C  C87  1  0.55210000  0.88090000  0.41582000  1
  C  C88  1  0.55430000  0.22820000  0.35816000  1
  C  C89  1  0.55900000  0.06750000  0.71189000  1
  C  C90  1  0.56240000  0.84100000  0.26953000  1
  C  C91  1  0.56850000  0.68380000  0.36664000  1
  C  C92  1  0.56940000  0.89470000  0.07699000  1
  C  C93  1  0.62690000  0.74960000  0.76507000  1
  C  C94  1  0.62820000  0.04520000  0.46584000  1
  C  C95  1  0.64650000  0.55430000  0.86005000  1
  C  C96  1  0.67060000  0.76350000  0.90960000  1
  C  C97  1  0.68810000  0.05950000  0.32441000  1
  C  C98  1  0.69210000  0.96400000  0.80739000  1
  C  C99  1  0.72570000  0.86720000  0.42894000  1
  C  C100  1  0.74450000  0.85470000  0.28003000  1
  C  C101  1  0.74830000  0.67280000  0.37801000  1
  C  C102  1  0.75170000  0.67280000  0.87801000  1
  C  C103  1  0.75550000  0.85470000  0.78003000  1
  C  C104  1  0.77430000  0.86720000  0.92894000  1
  C  C105  1  0.80790000  0.96400000  0.30739000  1
  C  C106  1  0.81190000  0.05950000  0.82441000  1
  C  C107  1  0.82940000  0.76350000  0.40960000  1
  C  C108  1  0.85350000  0.55430000  0.36005000  1
  C  C109  1  0.87180000  0.04520000  0.96584000  1
  C  C110  1  0.87310000  0.74960000  0.26507000  1
  C  C111  1  0.93060000  0.89470000  0.57699000  1
  C  C112  1  0.93150000  0.68380000  0.86664000  1
  C  C113  1  0.93760000  0.84100000  0.76953000  1
  C  C114  1  0.94100000  0.06750000  0.21189000  1
  C  C115  1  0.94570000  0.22820000  0.85816000  1
  C  C116  1  0.94790000  0.88090000  0.91582000  1
  C  C117  1  0.96910000  0.21100000  0.11483000  1
  C  C118  1  0.97090000  0.21030000  0.45506000  1
  C  C119  1  0.98950000  0.41480000  0.16814000  1
  C  C120  1  0.99280000  0.04090000  0.81553000  1
  C  C121  1  0.99970000  0.73640000  0.73277000  1
  N  N122  1  0.00370000  0.99590000  0.93953000  1
  N  N123  1  0.07130000  0.15010000  0.83812000  1
  N  N124  1  0.21240000  0.82100000  0.14885000  1
  N  N125  1  0.23160000  0.02870000  0.53879000  1
  N  N126  1  0.26840000  0.02870000  0.03879000  1
  N  N127  1  0.28760000  0.82100000  0.64885000  1
  N  N128  1  0.42870000  0.15010000  0.33812000  1
  N  N129  1  0.49630000  0.99590000  0.43953000  1
  N  N130  1  0.50370000  0.00410000  0.56047000  1
  N  N131  1  0.57130000  0.84990000  0.66188000  1
  N  N132  1  0.71240000  0.17900000  0.35115000  1
  N  N133  1  0.73160000  0.97130000  0.96121000  1
  N  N134  1  0.76840000  0.97130000  0.46121000  1
  N  N135  1  0.78760000  0.17900000  0.85115000  1
  N  N136  1  0.92870000  0.84990000  0.16188000  1
  N  N137  1  0.99630000  0.00410000  0.06047000  1
  O  O138  1  0.02400000  0.43460000  0.66630000  1
  O  O139  1  0.03580000  0.77020000  0.26936000  1
  O  O140  1  0.03610000  0.80350000  0.50460000  1
  O  O141  1  0.04190000  0.24710000  0.30511000  1
  O  O142  1  0.08350000  0.12180000  0.38378000  1
  O  O143  1  0.08760000  0.64060000  0.74198000  1
  O  O144  1  0.09110000  0.49110000  0.19219000  1
  O  O145  1  0.09320000  0.69960000  0.56133000  1
  O  O146  1  0.13000000  0.00940000  0.43908000  1
  O  O147  1  0.17570000  0.58210000  0.82868000  1
  O  O148  1  0.18270000  0.54540000  0.62360000  1
  O  O149  1  0.18330000  0.36440000  0.74964000  1
  O  O150  1  0.31670000  0.36440000  0.24964000  1
  O  O151  1  0.31730000  0.54540000  0.12360000  1
  O  O152  1  0.32430000  0.58210000  0.32868000  1
  O  O153  1  0.37000000  0.00940000  0.93908000  1
  O  O154  1  0.40680000  0.69960000  0.06133000  1
  O  O155  1  0.40890000  0.49110000  0.69219000  1
  O  O156  1  0.41240000  0.64060000  0.24198000  1
  O  O157  1  0.41650000  0.12180000  0.88378000  1
  O  O158  1  0.45810000  0.24710000  0.80511000  1
  O  O159  1  0.46390000  0.80350000  0.00460000  1
  O  O160  1  0.46420000  0.77020000  0.76936000  1
  O  O161  1  0.47600000  0.43460000  0.16630000  1
  O  O162  1  0.52400000  0.56540000  0.83370000  1
  O  O163  1  0.53580000  0.22980000  0.23064000  1
  O  O164  1  0.53610000  0.19650000  0.99540000  1
  O  O165  1  0.54190000  0.75290000  0.19489000  1
  O  O166  1  0.58350000  0.87820000  0.11622000  1
  O  O167  1  0.58760000  0.35940000  0.75802000  1
  O  O168  1  0.59110000  0.50890000  0.30781000  1
  O  O169  1  0.59320000  0.30040000  0.93867000  1
  O  O170  1  0.63000000  0.99060000  0.06092000  1
  O  O171  1  0.67570000  0.41790000  0.67132000  1
  O  O172  1  0.68270000  0.45460000  0.87640000  1
  O  O173  1  0.68330000  0.63560000  0.75036000  1
  O  O174  1  0.81670000  0.63560000  0.25036000  1
  O  O175  1  0.81730000  0.45460000  0.37640000  1
  O  O176  1  0.82430000  0.41790000  0.17132000  1
  O  O177  1  0.87000000  0.99060000  0.56092000  1
  O  O178  1  0.90680000  0.30040000  0.43867000  1
  O  O179  1  0.90890000  0.50890000  0.80781000  1
  O  O180  1  0.91240000  0.35940000  0.25802000  1
  O  O181  1  0.91650000  0.87820000  0.61622000  1
  O  O182  1  0.95810000  0.75290000  0.69489000  1
  O  O183  1  0.96390000  0.19650000  0.49540000  1
  O  O184  1  0.96420000  0.22980000  0.73064000  1
  O  O185  1  0.97600000  0.56540000  0.33370000  1
