# generated using pymatgen
data_Zn5H4C4(N9O2)2
_symmetry_space_group_name_H-M   'P 1'
_cell_length_a   8.55050000
_cell_length_b   9.10914152
_cell_length_c   14.21131064
_cell_angle_alpha   108.61721104
_cell_angle_beta   90.00000000
_cell_angle_gamma   117.99121743
_symmetry_Int_Tables_number   1
_chemical_formula_structural   Zn5H4C4(N9O2)2
_chemical_formula_sum   'Zn10 H8 C8 N36 O8'
_cell_volume   911.28883763
_cell_formula_units_Z   2
loop_
 _symmetry_equiv_pos_site_id
 _symmetry_equiv_pos_as_xyz
  1  'x, y, z'
loop_
 _atom_site_type_symbol
 _atom_site_label
 _atom_site_symmetry_multiplicity
 _atom_site_fract_x
 _atom_site_fract_y
 _atom_site_fract_z
 _atom_site_occupancy
  C  C0  1  0.81710000  0.82260000  0.22490000  1
  C  C1  1  0.50550000  0.82260000  0.72490000  1
  C  C2  1  0.97270000  0.13020000  0.31900000  1
  C  C3  1  0.65750000  0.13020000  0.81900000  1
  C  C4  1  0.02730000  0.86980000  0.68100000  1
  C  C5  1  0.34250000  0.86980000  0.18100000  1
  C  C6  1  0.18290000  0.17740000  0.77510000  1
  C  C7  1  0.49450000  0.17740000  0.27510000  1
  H  H8  1  0.77567000  0.96552000  0.44072000  1
  H  H9  1  0.68985000  0.96552000  0.94072000  1
  H  H10  1  0.96003000  0.33860000  0.57795000  1
  H  H11  1  0.87857000  0.33860000  0.07795000  1
  H  H12  1  0.03997000  0.66140000  0.42205000  1
  H  H13  1  0.12143000  0.66140000  0.92205000  1
  H  H14  1  0.22433000  0.03448000  0.55928000  1
  H  H15  1  0.31015000  0.03448000  0.05928000  1
  N  N16  1  0.01690000  0.63620000  0.69490000  1
  N  N17  1  0.11930000  0.63620000  0.19490000  1
  N  N18  1  0.78440000  0.65600000  0.20140000  1
  N  N19  1  0.37160000  0.65600000  0.70140000  1
  N  N20  1  0.09350000  0.81420000  0.74150000  1
  N  N21  1  0.22070000  0.81420000  0.24150000  1
  N  N22  1  0.66100000  0.56340000  0.11550000  1
  N  N23  1  0.40240000  0.56340000  0.61550000  1
  N  N24  1  0.94460000  0.96660000  0.30590000  1
  N  N25  1  0.52200000  0.96660000  0.80590000  1
  N  N26  1  0.91090000  0.58160000  0.61150000  1
  N  N27  1  0.17070000  0.58160000  0.11150000  1
  N  N28  1  0.08600000  0.27680000  0.39990000  1
  N  N29  1  0.69080000  0.27680000  0.89990000  1
  N  N30  1  0.28270000  0.16600000  0.84390000  1
  N  N31  1  0.38330000  0.16600000  0.34390000  1
  N  N32  1  0.62110000  0.66760000  0.08770000  1
  N  N33  1  0.54650000  0.66760000  0.58770000  1
  N  N34  1  0.37890000  0.33240000  0.91230000  1
  N  N35  1  0.45350000  0.33240000  0.41230000  1
  N  N36  1  0.71730000  0.83400000  0.15610000  1
  N  N37  1  0.61670000  0.83400000  0.65610000  1
  N  N38  1  0.91400000  0.72320000  0.60010000  1
  N  N39  1  0.30920000  0.72320000  0.10010000  1
  N  N40  1  0.08910000  0.41840000  0.38850000  1
  N  N41  1  0.82930000  0.41840000  0.88850000  1
  N  N42  1  0.05540000  0.03340000  0.69410000  1
  N  N43  1  0.47800000  0.03340000  0.19410000  1
  N  N44  1  0.33900000  0.43660000  0.88450000  1
  N  N45  1  0.59760000  0.43660000  0.38450000  1
  N  N46  1  0.90650000  0.18580000  0.25850000  1
  N  N47  1  0.77930000  0.18580000  0.75850000  1
  N  N48  1  0.21560000  0.34400000  0.79860000  1
  N  N49  1  0.62840000  0.34400000  0.29860000  1
  N  N50  1  0.98310000  0.36380000  0.30510000  1
  N  N51  1  0.88070000  0.36380000  0.80510000  1
  O  O52  1  0.01910000  0.29300000  0.61160000  1
  O  O53  1  0.77390000  0.29300000  0.11160000  1
  O  O54  1  0.36610000  0.09960000  0.01120000  1
  O  O55  1  0.23350000  0.09960000  0.51120000  1
  O  O56  1  0.63390000  0.90040000  0.98880000  1
  O  O57  1  0.76650000  0.90040000  0.48880000  1
  O  O58  1  0.98090000  0.70700000  0.38840000  1
  O  O59  1  0.22610000  0.70700000  0.88840000  1
  Zn  Zn60  1  0.12327000  0.50000000  0.75000000  1
  Zn  Zn61  1  0.29264000  0.94558000  0.86563000  1
  Zn  Zn62  1  0.15294000  0.94558000  0.36563000  1
  Zn  Zn63  1  0.59034000  0.30972000  0.02872000  1
  Zn  Zn64  1  0.21938000  0.30972000  0.52872000  1
  Zn  Zn65  1  0.40966000  0.69028000  0.97128000  1
  Zn  Zn66  1  0.78062000  0.69028000  0.47128000  1
  Zn  Zn67  1  0.70736000  0.05442000  0.13437000  1
  Zn  Zn68  1  0.84706000  0.05442000  0.63437000  1
  Zn  Zn69  1  0.87673000  0.50000000  0.25000000  1
