# generated using pymatgen
data_ZnPHO4
_symmetry_space_group_name_H-M   'P 1'
_cell_length_a   10.47870000
_cell_length_b   14.95940000
_cell_length_c   20.00910000
_cell_angle_alpha   90.00000000
_cell_angle_beta   90.00000000
_cell_angle_gamma   90.00000000
_symmetry_Int_Tables_number   1
_chemical_formula_structural   ZnPHO4
_chemical_formula_sum   'Zn24 P24 H24 O96'
_cell_volume   3136.52776669
_cell_formula_units_Z   24
loop_
 _symmetry_equiv_pos_site_id
 _symmetry_equiv_pos_as_xyz
  1  'x, y, z'
loop_
 _atom_site_type_symbol
 _atom_site_label
 _atom_site_symmetry_multiplicity
 _atom_site_fract_x
 _atom_site_fract_y
 _atom_site_fract_z
 _atom_site_occupancy
  Zn  Zn0  1  0.92648000  0.11342000  0.75628000  1
  Zn  Zn1  1  0.92648000  0.61342000  0.24372000  1
  Zn  Zn2  1  0.90568000  0.43416000  0.58893000  1
  Zn  Zn3  1  0.90568000  0.93416000  0.41107000  1
  Zn  Zn4  1  0.86740000  0.51790000  0.58386000  1
  Zn  Zn5  1  0.86740000  0.01790000  0.41614000  1
  Zn  Zn6  1  0.63260000  0.01790000  0.91614000  1
  Zn  Zn7  1  0.63260000  0.51790000  0.08386000  1
  Zn  Zn8  1  0.59432000  0.93416000  0.91107000  1
  Zn  Zn9  1  0.59432000  0.43416000  0.08893000  1
  Zn  Zn10  1  0.57352000  0.61342000  0.74372000  1
  Zn  Zn11  1  0.57352000  0.11342000  0.25628000  1
  Zn  Zn12  1  0.42648000  0.88658000  0.74372000  1
  Zn  Zn13  1  0.42648000  0.38658000  0.25628000  1
  Zn  Zn14  1  0.40568000  0.56584000  0.91107000  1
  Zn  Zn15  1  0.40568000  0.06584000  0.08893000  1
  Zn  Zn16  1  0.36740000  0.48210000  0.91614000  1
  Zn  Zn17  1  0.36740000  0.98210000  0.08386000  1
  Zn  Zn18  1  0.13260000  0.98210000  0.58386000  1
  Zn  Zn19  1  0.13260000  0.48210000  0.41614000  1
  Zn  Zn20  1  0.09432000  0.06584000  0.58893000  1
  Zn  Zn21  1  0.09432000  0.56584000  0.41107000  1
  Zn  Zn22  1  0.07352000  0.38658000  0.75628000  1
  Zn  Zn23  1  0.07352000  0.88658000  0.24372000  1
  P  P24  1  0.00000000  0.25000000  0.88021000  1
  P  P25  1  0.00000000  0.25000000  0.63798000  1
  P  P26  1  0.00000000  0.75000000  0.36202000  1
  P  P27  1  1.00000000  0.75000000  0.11979000  1
  P  P28  1  0.86360000  0.92104000  0.55873000  1
  P  P29  1  0.86360000  0.42104000  0.44127000  1
  P  P30  1  0.80773000  0.47849000  0.73431000  1
  P  P31  1  0.80773000  0.97849000  0.26569000  1
  P  P32  1  0.69227000  0.97849000  0.76569000  1
  P  P33  1  0.69227000  0.47849000  0.23431000  1
  P  P34  1  0.63640000  0.42104000  0.94127000  1
  P  P35  1  0.63640000  0.92104000  0.05873000  1
  P  P36  1  0.50000000  0.75000000  0.86202000  1
  P  P37  1  0.50000000  0.75000000  0.61979000  1
  P  P38  1  0.50000000  0.25000000  0.38021000  1
  P  P39  1  0.50000000  0.25000000  0.13798000  1
  P  P40  1  0.36360000  0.07896000  0.94127000  1
  P  P41  1  0.36360000  0.57896000  0.05873000  1
  P  P42  1  0.30773000  0.52151000  0.76569000  1
  P  P43  1  0.30773000  0.02151000  0.23431000  1
  P  P44  1  0.19227000  0.02151000  0.73431000  1
  P  P45  1  0.19227000  0.52151000  0.26569000  1
  P  P46  1  0.13640000  0.57896000  0.55873000  1
  P  P47  1  0.13640000  0.07896000  0.44127000  1
  H  H48  1  0.91840000  0.79620000  0.56720000  1
  H  H49  1  0.91840000  0.29620000  0.43280000  1
  H  H50  1  0.85820000  0.32660000  0.91100000  1
  H  H51  1  0.85820000  0.82660000  0.08900000  1
  H  H52  1  0.76210000  0.90260000  0.69210000  1
  H  H53  1  0.76210000  0.40260000  0.30790000  1
  H  H54  1  0.73790000  0.40260000  0.80790000  1
  H  H55  1  0.73790000  0.90260000  0.19210000  1
  H  H56  1  0.64180000  0.82660000  0.58900000  1
  H  H57  1  0.64180000  0.32660000  0.41100000  1
  H  H58  1  0.58160000  0.29620000  0.93280000  1
  H  H59  1  0.58160000  0.79620000  0.06720000  1
  H  H60  1  0.41840000  0.20380000  0.93280000  1
  H  H61  1  0.41840000  0.70380000  0.06720000  1
  H  H62  1  0.35820000  0.67340000  0.58900000  1
  H  H63  1  0.35820000  0.17340000  0.41100000  1
  H  H64  1  0.26210000  0.09740000  0.80790000  1
  H  H65  1  0.26210000  0.59740000  0.19210000  1
  H  H66  1  0.23790000  0.59740000  0.69210000  1
  H  H67  1  0.23790000  0.09740000  0.30790000  1
  H  H68  1  0.14180000  0.17340000  0.91100000  1
  H  H69  1  0.14180000  0.67340000  0.08900000  1
  H  H70  1  0.08160000  0.70380000  0.56720000  1
  H  H71  1  0.08160000  0.20380000  0.43280000  1
  O  O72  1  0.94710000  0.98810000  0.59140000  1
  O  O73  1  0.94710000  0.48810000  0.40860000  1
  O  O74  1  0.94580000  0.47960000  0.75800000  1
  O  O75  1  0.94580000  0.97960000  0.24200000  1
  O  O76  1  0.94340000  0.83780000  0.54400000  1
  O  O77  1  0.94340000  0.33780000  0.45600000  1
  O  O78  1  0.92470000  0.18600000  0.83840000  1
  O  O79  1  0.92470000  0.68600000  0.16160000  1
  O  O80  1  0.92000000  0.18880000  0.67910000  1
  O  O81  1  0.92000000  0.68880000  0.32090000  1
  O  O82  1  0.91300000  0.29810000  0.93110000  1
  O  O83  1  0.91300000  0.79810000  0.06890000  1
  O  O84  1  0.90790000  0.30200000  0.59320000  1
  O  O85  1  0.90790000  0.80200000  0.40680000  1
  O  O86  1  0.80930000  0.44950000  0.50630000  1
  O  O87  1  0.80930000  0.94950000  0.49370000  1
  O  O88  1  0.79280000  0.46030000  0.66000000  1
  O  O89  1  0.79280000  0.96030000  0.34000000  1
  O  O90  1  0.76420000  0.89770000  0.73290000  1
  O  O91  1  0.76420000  0.39770000  0.26710000  1
  O  O92  1  0.75590000  0.89700000  0.60650000  1
  O  O93  1  0.75590000  0.39700000  0.39350000  1
  O  O94  1  0.75500000  0.06520000  0.74580000  1
  O  O95  1  0.75500000  0.56520000  0.25420000  1
  O  O96  1  0.74500000  0.56520000  0.75420000  1
  O  O97  1  0.74500000  0.06520000  0.24580000  1
  O  O98  1  0.74410000  0.39700000  0.89350000  1
  O  O99  1  0.74410000  0.89700000  0.10650000  1
  O  O100  1  0.73580000  0.39770000  0.76710000  1
  O  O101  1  0.73580000  0.89770000  0.23290000  1
  O  O102  1  0.70720000  0.96030000  0.84000000  1
  O  O103  1  0.70720000  0.46030000  0.16000000  1
  O  O104  1  0.69070000  0.94950000  0.99370000  1
  O  O105  1  0.69070000  0.44950000  0.00630000  1
  O  O106  1  0.59210000  0.80200000  0.90680000  1
  O  O107  1  0.59210000  0.30200000  0.09320000  1
  O  O108  1  0.58700000  0.79810000  0.56890000  1
  O  O109  1  0.58700000  0.29810000  0.43110000  1
  O  O110  1  0.58000000  0.68880000  0.82090000  1
  O  O111  1  0.58000000  0.18880000  0.17910000  1
  O  O112  1  0.57530000  0.68600000  0.66160000  1
  O  O113  1  0.57530000  0.18600000  0.33840000  1
  O  O114  1  0.55660000  0.33780000  0.95600000  1
  O  O115  1  0.55660000  0.83780000  0.04400000  1
  O  O116  1  0.55420000  0.97960000  0.74200000  1
  O  O117  1  0.55420000  0.47960000  0.25800000  1
  O  O118  1  0.55290000  0.48810000  0.90860000  1
  O  O119  1  0.55290000  0.98810000  0.09140000  1
  O  O120  1  0.44710000  0.01190000  0.90860000  1
  O  O121  1  0.44710000  0.51190000  0.09140000  1
  O  O122  1  0.44580000  0.52040000  0.74200000  1
  O  O123  1  0.44580000  0.02040000  0.25800000  1
  O  O124  1  0.44340000  0.16220000  0.95600000  1
  O  O125  1  0.44340000  0.66220000  0.04400000  1
  O  O126  1  0.42470000  0.81400000  0.66160000  1
  O  O127  1  0.42470000  0.31400000  0.33840000  1
  O  O128  1  0.42000000  0.81120000  0.82090000  1
  O  O129  1  0.42000000  0.31120000  0.17910000  1
  O  O130  1  0.41300000  0.70190000  0.56890000  1
  O  O131  1  0.41300000  0.20190000  0.43110000  1
  O  O132  1  0.40790000  0.69800000  0.90680000  1
  O  O133  1  0.40790000  0.19800000  0.09320000  1
  O  O134  1  0.30930000  0.55050000  0.99370000  1
  O  O135  1  0.30930000  0.05050000  0.00630000  1
  O  O136  1  0.29280000  0.53970000  0.84000000  1
  O  O137  1  0.29280000  0.03970000  0.16000000  1
  O  O138  1  0.26420000  0.10230000  0.76710000  1
  O  O139  1  0.26420000  0.60230000  0.23290000  1
  O  O140  1  0.25590000  0.10300000  0.89350000  1
  O  O141  1  0.25590000  0.60300000  0.10650000  1
  O  O142  1  0.25500000  0.93480000  0.75420000  1
  O  O143  1  0.25500000  0.43480000  0.24580000  1
  O  O144  1  0.24500000  0.43480000  0.74580000  1
  O  O145  1  0.24500000  0.93480000  0.25420000  1
  O  O146  1  0.24410000  0.60300000  0.60650000  1
  O  O147  1  0.24410000  0.10300000  0.39350000  1
  O  O148  1  0.23580000  0.60230000  0.73290000  1
  O  O149  1  0.23580000  0.10230000  0.26710000  1
  O  O150  1  0.20720000  0.03970000  0.66000000  1
  O  O151  1  0.20720000  0.53970000  0.34000000  1
  O  O152  1  0.19070000  0.05050000  0.50630000  1
  O  O153  1  0.19070000  0.55050000  0.49370000  1
  O  O154  1  0.09210000  0.19800000  0.59320000  1
  O  O155  1  0.09210000  0.69800000  0.40680000  1
  O  O156  1  0.08700000  0.20190000  0.93110000  1
  O  O157  1  0.08700000  0.70190000  0.06890000  1
  O  O158  1  0.08000000  0.31120000  0.67910000  1
  O  O159  1  0.08000000  0.81120000  0.32090000  1
  O  O160  1  0.07530000  0.31400000  0.83840000  1
  O  O161  1  0.07530000  0.81400000  0.16160000  1
  O  O162  1  0.05660000  0.66220000  0.54400000  1
  O  O163  1  0.05660000  0.16220000  0.45600000  1
  O  O164  1  0.05420000  0.02040000  0.75800000  1
  O  O165  1  0.05420000  0.52040000  0.24200000  1
  O  O166  1  0.05290000  0.51190000  0.59140000  1
  O  O167  1  0.05290000  0.01190000  0.40860000  1
