# generated using pymatgen
data_Eu2H30C45(SO8)3
_symmetry_space_group_name_H-M   'P 1'
_cell_length_a   9.27060000
_cell_length_b   15.66300000
_cell_length_c   22.31000000
_cell_angle_alpha   102.25000000
_cell_angle_beta   101.47000000
_cell_angle_gamma   104.51000000
_symmetry_Int_Tables_number   1
_chemical_formula_structural   Eu2H30C45(SO8)3
_chemical_formula_sum   'Eu4 H60 C90 S6 O48'
_cell_volume   2954.05592187
_cell_formula_units_Z   2
loop_
 _symmetry_equiv_pos_site_id
 _symmetry_equiv_pos_as_xyz
  1  'x, y, z'
loop_
 _atom_site_type_symbol
 _atom_site_label
 _atom_site_symmetry_multiplicity
 _atom_site_fract_x
 _atom_site_fract_y
 _atom_site_fract_z
 _atom_site_occupancy
  Eu  Eu0  1  0.02951000  0.91201000  0.85658000  1
  Eu  Eu1  1  0.48562000  0.13966000  0.19787000  1
  Eu  Eu2  1  0.51438000  0.86034000  0.80213000  1
  Eu  Eu3  1  0.97049000  0.08799000  0.14342000  1
  H  H4  1  0.00440000  0.66210000  0.90850000  1
  H  H5  1  0.00800000  0.43620000  0.29330000  1
  H  H6  1  0.01600000  0.15050000  0.62970000  1
  H  H7  1  0.02900000  0.09530000  0.71860000  1
  H  H8  1  0.04110000  0.36040000  0.71070000  1
  H  H9  1  0.04770000  0.45520000  0.69700000  1
  H  H10  1  0.05780000  0.48110000  0.07410000  1
  H  H11  1  0.06620000  0.63560000  0.35180000  1
  H  H12  1  0.07670000  0.30580000  0.26690000  1
  H  H13  1  0.12690000  0.26660000  0.02150000  1
  H  H14  1  0.13110000  0.16500000  0.33490000  1
  H  H15  1  0.23230000  0.15690000  0.84190000  1
  H  H16  1  0.25310000  0.16510000  0.43320000  1
  H  H17  1  0.25930000  0.27160000  0.79070000  1
  H  H18  1  0.27330000  0.46380000  0.84700000  1
  H  H19  1  0.28100000  0.91460000  0.62680000  1
  H  H20  1  0.31760000  0.55480000  0.03630000  1
  H  H21  1  0.31850000  0.14270000  0.58890000  1
  H  H22  1  0.33180000  0.21370000  0.54860000  1
  H  H23  1  0.33190000  0.11360000  0.51900000  1
  H  H24  1  0.33840000  0.60970000  0.83250000  1
  H  H25  1  0.37700000  0.79020000  0.26010000  1
  H  H26  1  0.38050000  0.53030000  0.09900000  1
  H  H27  1  0.38600000  0.63170000  0.10110000  1
  H  H28  1  0.40580000  0.70650000  0.02520000  1
  H  H29  1  0.40880000  0.43740000  0.19830000  1
  H  H30  1  0.41110000  0.90630000  0.20960000  1
  H  H31  1  0.43000000  0.01260000  0.33230000  1
  H  H32  1  0.44210000  0.95270000  0.41990000  1
  H  H33  1  0.49060000  0.80800000  0.96890000  1
  H  H34  1  0.50940000  0.19200000  0.03110000  1
  H  H35  1  0.55790000  0.04730000  0.58010000  1
  H  H36  1  0.57000000  0.98740000  0.66770000  1
  H  H37  1  0.58890000  0.09370000  0.79040000  1
  H  H38  1  0.59120000  0.56260000  0.80170000  1
  H  H39  1  0.59420000  0.29350000  0.97480000  1
  H  H40  1  0.61400000  0.36830000  0.89890000  1
  H  H41  1  0.61950000  0.46970000  0.90100000  1
  H  H42  1  0.62300000  0.20980000  0.73990000  1
  H  H43  1  0.66160000  0.39030000  0.16750000  1
  H  H44  1  0.66810000  0.88640000  0.48100000  1
  H  H45  1  0.66820000  0.78630000  0.45140000  1
  H  H46  1  0.68150000  0.85730000  0.41110000  1
  H  H47  1  0.68240000  0.44520000  0.96370000  1
  H  H48  1  0.71900000  0.08540000  0.37320000  1
  H  H49  1  0.72670000  0.53620000  0.15300000  1
  H  H50  1  0.74070000  0.72840000  0.20930000  1
  H  H51  1  0.74690000  0.83490000  0.56680000  1
  H  H52  1  0.76770000  0.84310000  0.15810000  1
  H  H53  1  0.86890000  0.83500000  0.66510000  1
  H  H54  1  0.87310000  0.73340000  0.97850000  1
  H  H55  1  0.92330000  0.69420000  0.73310000  1
  H  H56  1  0.93380000  0.36440000  0.64820000  1
  H  H57  1  0.94220000  0.51890000  0.92590000  1
  H  H58  1  0.95230000  0.54480000  0.30300000  1
  H  H59  1  0.95890000  0.63960000  0.28930000  1
  H  H60  1  0.97100000  0.90470000  0.28140000  1
  H  H61  1  0.98400000  0.84950000  0.37030000  1
  H  H62  1  0.99200000  0.56380000  0.70670000  1
  H  H63  1  0.99560000  0.33790000  0.09150000  1
  C  C64  1  0.01870000  0.60500000  0.30750000  1
  C  C65  1  0.02130000  0.53680000  0.90700000  1
  C  C66  1  0.05860000  0.62190000  0.89620000  1
  C  C67  1  0.06400000  0.12590000  0.46390000  1
  C  C68  1  0.06650000  0.91510000  0.30930000  1
  C  C69  1  0.07280000  0.14850000  0.36240000  1
  C  C70  1  0.07400000  0.88050000  0.36200000  1
  C  C71  1  0.08890000  0.43660000  0.27440000  1
  C  C72  1  0.09040000  0.87630000  0.65850000  1
  C  C73  1  0.09350000  0.89800000  0.55590000  1
  C  C74  1  0.10410000  0.47860000  0.88900000  1
  C  C75  1  0.12960000  0.35870000  0.25830000  1
  C  C76  1  0.14570000  0.14900000  0.42120000  1
  C  C77  1  0.16760000  0.51640000  0.26270000  1
  C  C78  1  0.16970000  0.87640000  0.72290000  1
  C  C79  1  0.17370000  0.89900000  0.61560000  1
  C  C80  1  0.17440000  0.64890000  0.86770000  1
  C  C81  1  0.19000000  0.00500000  0.24190000  1
  C  C82  1  0.19930000  0.96460000  0.29800000  1
  C  C83  1  0.20650000  0.74220000  0.85470000  1
  C  C84  1  0.21480000  0.89280000  0.40120000  1
  C  C85  1  0.22040000  0.50440000  0.86000000  1
  C  C86  1  0.22200000  0.27220000  0.01250000  1
  C  C87  1  0.24930000  0.35690000  0.22920000  1
  C  C88  1  0.25140000  0.15440000  0.06960000  1
  C  C89  1  0.25770000  0.59100000  0.85040000  1
  C  C90  1  0.27170000  0.33280000  0.98060000  1
  C  C91  1  0.28660000  0.51420000  0.23410000  1
  C  C92  1  0.29060000  0.15030000  0.54700000  1
  C  C93  1  0.29900000  0.27290000  0.21170000  1
  C  C94  1  0.30860000  0.21780000  0.03220000  1
  C  C95  1  0.31010000  0.16740000  0.82120000  1
  C  C96  1  0.32660000  0.23640000  0.79150000  1
  C  C97  1  0.32820000  0.43670000  0.21740000  1
  C  C98  1  0.33980000  0.97890000  0.33910000  1
  C  C99  1  0.34710000  0.94270000  0.39160000  1
  C  C100  1  0.38890000  0.03830000  0.85380000  1
  C  C101  1  0.39490000  0.57610000  0.07640000  1
  C  C102  1  0.40760000  0.11330000  0.82080000  1
  C  C103  1  0.41210000  0.34330000  0.96530000  1
  C  C104  1  0.44700000  0.25210000  0.76250000  1
  C  C105  1  0.44850000  0.22720000  0.01810000  1
  C  C106  1  0.45480000  0.80060000  0.23940000  1
  C  C107  1  0.47660000  0.87000000  0.20940000  1
  C  C108  1  0.50000000  0.28870000  0.98450000  1
  C  C109  1  0.50000000  0.71130000  0.01550000  1
  C  C110  1  0.52340000  0.13000000  0.79060000  1
  C  C111  1  0.54520000  0.19940000  0.76060000  1
  C  C112  1  0.55150000  0.77280000  0.98190000  1
  C  C113  1  0.55300000  0.74790000  0.23750000  1
  C  C114  1  0.58790000  0.65670000  0.03470000  1
  C  C115  1  0.59240000  0.88670000  0.17920000  1
  C  C116  1  0.60510000  0.42390000  0.92360000  1
  C  C117  1  0.61110000  0.96170000  0.14620000  1
  C  C118  1  0.65290000  0.05730000  0.60840000  1
  C  C119  1  0.66020000  0.02110000  0.66090000  1
  C  C120  1  0.67180000  0.56330000  0.78260000  1
  C  C121  1  0.67340000  0.76360000  0.20850000  1
  C  C122  1  0.68990000  0.83260000  0.17880000  1
  C  C123  1  0.69140000  0.78220000  0.96780000  1
  C  C124  1  0.70100000  0.72710000  0.78830000  1
  C  C125  1  0.70940000  0.84970000  0.45300000  1
  C  C126  1  0.71340000  0.48580000  0.76590000  1
  C  C127  1  0.72830000  0.66720000  0.01940000  1
  C  C128  1  0.74230000  0.40900000  0.14960000  1
  C  C129  1  0.74860000  0.84560000  0.93040000  1
  C  C130  1  0.75070000  0.64310000  0.77080000  1
  C  C131  1  0.77800000  0.72780000  0.98750000  1
  C  C132  1  0.77960000  0.49560000  0.14000000  1
  C  C133  1  0.78520000  0.10720000  0.59880000  1
  C  C134  1  0.79350000  0.25780000  0.14530000  1
  C  C135  1  0.80070000  0.03540000  0.70200000  1
  C  C136  1  0.81000000  0.99500000  0.75810000  1
  C  C137  1  0.82560000  0.35110000  0.13230000  1
  C  C138  1  0.82630000  0.10100000  0.38440000  1
  C  C139  1  0.83030000  0.12360000  0.27710000  1
  C  C140  1  0.83240000  0.48360000  0.73730000  1
  C  C141  1  0.85430000  0.85100000  0.57880000  1
  C  C142  1  0.87040000  0.64130000  0.74170000  1
  C  C143  1  0.89590000  0.52140000  0.11100000  1
  C  C144  1  0.90650000  0.10200000  0.44410000  1
  C  C145  1  0.90960000  0.12370000  0.34150000  1
  C  C146  1  0.91110000  0.56340000  0.72560000  1
  C  C147  1  0.92600000  0.11950000  0.63800000  1
  C  C148  1  0.92720000  0.85150000  0.63760000  1
  C  C149  1  0.93350000  0.08490000  0.69070000  1
  C  C150  1  0.93600000  0.87410000  0.53610000  1
  C  C151  1  0.94140000  0.37810000  0.10380000  1
  C  C152  1  0.97870000  0.46320000  0.09300000  1
  C  C153  1  0.98130000  0.39500000  0.69250000  1
  S  S154  1  0.06000000  0.36935000  0.90257000  1
  S  S155  1  0.22590000  0.84884000  0.46751000  1
  S  S156  1  0.47460000  0.34414000  0.72837000  1
  S  S157  1  0.52540000  0.65586000  0.27163000  1
  S  S158  1  0.77410000  0.15116000  0.53249000  1
  S  S159  1  0.94000000  0.63065000  0.09743000  1
  O  O160  1  0.05980000  0.00100000  0.21070000  1
  O  O161  1  0.08640000  0.30360000  0.85570000  1
  O  O162  1  0.08670000  0.65140000  0.08290000  1
  O  O163  1  0.08950000  0.86100000  0.76140000  1
  O  O164  1  0.10930000  0.76370000  0.45250000  1
  O  O165  1  0.12060000  0.14600000  0.07590000  1
  O  O166  1  0.12390000  0.12170000  0.52360000  1
  O  O167  1  0.12990000  0.79250000  0.87320000  1
  O  O168  1  0.13640000  0.59730000  0.27520000  1
  O  O169  1  0.18240000  0.92530000  0.51390000  1
  O  O170  1  0.19160000  0.39480000  0.96830000  1
  O  O171  1  0.21420000  0.19480000  0.21040000  1
  O  O172  1  0.27000000  0.01760000  0.87220000  1
  O  O173  1  0.30830000  0.76280000  0.82510000  1
  O  O174  1  0.31210000  0.88950000  0.73550000  1
  O  O175  1  0.31570000  0.03650000  0.22930000  1
  O  O176  1  0.34110000  0.11470000  0.09420000  1
  O  O177  1  0.36410000  0.39120000  0.73630000  1
  O  O178  1  0.36460000  0.59480000  0.22120000  1
  O  O179  1  0.38340000  0.85650000  0.49470000  1
  O  O180  1  0.42810000  0.28310000  0.19880000  1
  O  O181  1  0.45420000  0.40660000  0.93470000  1
  O  O182  1  0.49690000  0.00160000  0.86230000  1
  O  O183  1  0.49910000  0.68050000  0.33190000  1
  O  O184  1  0.50090000  0.31950000  0.66810000  1
  O  O185  1  0.50310000  0.99840000  0.13770000  1
  O  O186  1  0.54580000  0.59340000  0.06530000  1
  O  O187  1  0.57190000  0.71690000  0.80120000  1
  O  O188  1  0.61660000  0.14350000  0.50530000  1
  O  O189  1  0.63540000  0.40520000  0.77880000  1
  O  O190  1  0.63590000  0.60880000  0.26370000  1
  O  O191  1  0.65890000  0.88530000  0.90580000  1
  O  O192  1  0.68430000  0.96350000  0.77070000  1
  O  O193  1  0.68790000  0.11050000  0.26450000  1
  O  O194  1  0.69170000  0.23720000  0.17490000  1
  O  O195  1  0.73000000  0.98240000  0.12780000  1
  O  O196  1  0.78580000  0.80520000  0.78960000  1
  O  O197  1  0.80840000  0.60520000  0.03170000  1
  O  O198  1  0.81760000  0.07470000  0.48610000  1
  O  O199  1  0.86360000  0.40270000  0.72480000  1
  O  O200  1  0.87010000  0.20750000  0.12680000  1
  O  O201  1  0.87610000  0.87830000  0.47640000  1
  O  O202  1  0.87940000  0.85400000  0.92410000  1
  O  O203  1  0.89070000  0.23630000  0.54750000  1
  O  O204  1  0.91050000  0.13900000  0.23860000  1
  O  O205  1  0.91330000  0.34860000  0.91710000  1
  O  O206  1  0.91360000  0.69640000  0.14430000  1
  O  O207  1  0.94020000  0.99900000  0.78930000  1
