# generated using pymatgen
data_DyH4(CO2)4
_symmetry_space_group_name_H-M   'P 1'
_cell_length_a   6.70720000
_cell_length_b   8.73830000
_cell_length_c   18.16040000
_cell_angle_alpha   90.00000000
_cell_angle_beta   90.00000000
_cell_angle_gamma   90.00000000
_symmetry_Int_Tables_number   1
_chemical_formula_structural   DyH4(CO2)4
_chemical_formula_sum   'Dy4 H16 C16 O32'
_cell_volume   1064.37243161
_cell_formula_units_Z   4
loop_
 _symmetry_equiv_pos_site_id
 _symmetry_equiv_pos_as_xyz
  1  'x, y, z'
loop_
 _atom_site_type_symbol
 _atom_site_label
 _atom_site_symmetry_multiplicity
 _atom_site_fract_x
 _atom_site_fract_y
 _atom_site_fract_z
 _atom_site_occupancy
  Dy  Dy0  1  0.40591000  0.24415000  0.89446000  1
  Dy  Dy1  1  0.90591000  0.25585000  0.39446000  1
  Dy  Dy2  1  0.40591000  0.74415000  0.60554000  1
  Dy  Dy3  1  0.90591000  0.75585000  0.10554000  1
  H  H4  1  0.08790000  0.05400000  0.00170000  1
  H  H5  1  0.17040000  0.05530000  0.53380000  1
  H  H6  1  0.74720000  0.07050000  0.22210000  1
  H  H7  1  0.89960000  0.23920000  0.92900000  1
  H  H8  1  0.39960000  0.26080000  0.42900000  1
  H  H9  1  0.24720000  0.42950000  0.72210000  1
  H  H10  1  0.67040000  0.44470000  0.03380000  1
  H  H11  1  0.58790000  0.44600000  0.50170000  1
  H  H12  1  0.08790000  0.55400000  0.49830000  1
  H  H13  1  0.17040000  0.55530000  0.96620000  1
  H  H14  1  0.74720000  0.57050000  0.27790000  1
  H  H15  1  0.89960000  0.73920000  0.57100000  1
  H  H16  1  0.39960000  0.76080000  0.07100000  1
  H  H17  1  0.24720000  0.92950000  0.77790000  1
  H  H18  1  0.67040000  0.94470000  0.46620000  1
  H  H19  1  0.58790000  0.94600000  0.99830000  1
  C  C20  1  0.84310000  0.01330000  0.24670000  1
  C  C21  1  0.66250000  0.01600000  0.50410000  1
  C  C22  1  0.64670000  0.02890000  0.02193000  1
  C  C23  1  0.90180000  0.23810000  0.87781000  1
  C  C24  1  0.40180000  0.26190000  0.37781000  1
  C  C25  1  0.14670000  0.47110000  0.52193000  1
  C  C26  1  0.16250000  0.48400000  0.00410000  1
  C  C27  1  0.34310000  0.48670000  0.74670000  1
  C  C28  1  0.84310000  0.51330000  0.25330000  1
  C  C29  1  0.66250000  0.51600000  0.99590000  1
  C  C30  1  0.64670000  0.52890000  0.47807000  1
  C  C31  1  0.90180000  0.73810000  0.62219000  1
  C  C32  1  0.40180000  0.76190000  0.12219000  1
  C  C33  1  0.14670000  0.97110000  0.97807000  1
  C  C34  1  0.16250000  0.98400000  0.49590000  1
  C  C35  1  0.34310000  0.98670000  0.75330000  1
  O  O36  1  0.26200000  0.00610000  0.92954000  1
  O  O37  1  0.09250000  0.03020000  0.43759000  1
  O  O38  1  0.89780000  0.05826000  0.30829000  1
  O  O39  1  0.40820000  0.10311000  0.78412000  1
  O  O40  1  0.72380000  0.14590000  0.48966000  1
  O  O41  1  0.59360000  0.15410000  0.99832000  1
  O  O42  1  0.73730000  0.22150000  0.84590000  1
  O  O43  1  0.56560000  0.24700000  0.34820000  1
  O  O44  1  0.06560000  0.25300000  0.84820000  1
  O  O45  1  0.23730000  0.27850000  0.34590000  1
  O  O46  1  0.09360000  0.34590000  0.49832000  1
  O  O47  1  0.22380000  0.35410000  0.98966000  1
  O  O48  1  0.90820000  0.39689000  0.28412000  1
  O  O49  1  0.39780000  0.44174000  0.80829000  1
  O  O50  1  0.59250000  0.46980000  0.93759000  1
  O  O51  1  0.76200000  0.49390000  0.42954000  1
  O  O52  1  0.26200000  0.50610000  0.57046000  1
  O  O53  1  0.09250000  0.53020000  0.06241000  1
  O  O54  1  0.89780000  0.55826000  0.19171000  1
  O  O55  1  0.40820000  0.60311000  0.71588000  1
  O  O56  1  0.72380000  0.64590000  0.01034000  1
  O  O57  1  0.59360000  0.65410000  0.50168000  1
  O  O58  1  0.73730000  0.72150000  0.65410000  1
  O  O59  1  0.56560000  0.74700000  0.15180000  1
  O  O60  1  0.06560000  0.75300000  0.65180000  1
  O  O61  1  0.23730000  0.77850000  0.15410000  1
  O  O62  1  0.09360000  0.84590000  0.00168000  1
  O  O63  1  0.22380000  0.85410000  0.51034000  1
  O  O64  1  0.90820000  0.89689000  0.21588000  1
  O  O65  1  0.39780000  0.94174000  0.69171000  1
  O  O66  1  0.59250000  0.96980000  0.56241000  1
  O  O67  1  0.76200000  0.99390000  0.07046000  1
