# generated using pymatgen
data_Gd2FeH2C4(S2O11)2
_symmetry_space_group_name_H-M   'P 1'
_cell_length_a   11.30714558
_cell_length_b   11.30714558
_cell_length_c   12.59300000
_cell_angle_alpha   91.95580554
_cell_angle_beta   91.95580554
_cell_angle_gamma   92.92768236
_symmetry_Int_Tables_number   1
_chemical_formula_structural   Gd2FeH2C4(S2O11)2
_chemical_formula_sum   'Gd4 Fe2 H4 C8 S8 O44'
_cell_volume   1605.95815787
_cell_formula_units_Z   2
loop_
 _symmetry_equiv_pos_site_id
 _symmetry_equiv_pos_as_xyz
  1  'x, y, z'
loop_
 _atom_site_type_symbol
 _atom_site_label
 _atom_site_symmetry_multiplicity
 _atom_site_fract_x
 _atom_site_fract_y
 _atom_site_fract_z
 _atom_site_occupancy
  C  C0  1  0.94220000  0.98300000  0.00360000  1
  C  C1  1  0.98300000  0.94220000  0.50360000  1
  C  C2  1  0.86130000  0.00750000  0.90510000  1
  C  C3  1  0.00750000  0.86130000  0.40510000  1
  C  C4  1  0.13870000  0.99250000  0.09490000  1
  C  C5  1  0.99250000  0.13870000  0.59490000  1
  C  C6  1  0.05780000  0.01700000  0.99640000  1
  C  C7  1  0.01700000  0.05780000  0.49640000  1
  Fe  Fe8  1  0.95160000  0.04840000  0.25000000  1
  Fe  Fe9  1  0.04840000  0.95160000  0.75000000  1
  Gd  Gd10  1  0.69069000  0.06669000  0.09061000  1
  Gd  Gd11  1  0.06669000  0.69069000  0.59061000  1
  Gd  Gd12  1  0.30931000  0.93331000  0.90939000  1
  Gd  Gd13  1  0.93331000  0.30931000  0.40939000  1
  H  H14  1  0.89630000  0.94350000  0.50130000  1
  H  H15  1  0.94350000  0.89630000  0.00130000  1
  H  H16  1  0.10370000  0.05650000  0.49870000  1
  H  H17  1  0.05650000  0.10370000  0.99870000  1
  O  O18  1  0.74430000  0.21090000  0.39210000  1
  O  O19  1  0.21090000  0.74430000  0.89210000  1
  O  O20  1  0.88380000  0.00720000  0.09980000  1
  O  O21  1  0.00720000  0.88380000  0.59980000  1
  O  O22  1  0.88350000  0.96910000  0.81470000  1
  O  O23  1  0.96910000  0.88350000  0.31470000  1
  O  O24  1  0.77000000  0.05800000  0.92460000  1
  O  O25  1  0.05800000  0.77000000  0.42460000  1
  O  O26  1  0.75680000  0.03920000  0.27380000  1
  O  O27  1  0.03920000  0.75680000  0.77380000  1
  O  O28  1  0.59610000  0.16150000  0.25120000  1
  O  O29  1  0.16150000  0.59610000  0.75120000  1
  O  O30  1  0.55190000  0.18570000  0.01000000  1
  O  O31  1  0.18570000  0.55190000  0.51000000  1
  O  O32  1  0.47690000  0.26010000  0.85290000  1
  O  O33  1  0.26010000  0.47690000  0.35290000  1
  O  O34  1  0.60760000  0.04320000  0.40610000  1
  O  O35  1  0.04320000  0.60760000  0.90610000  1
  O  O36  1  0.48640000  0.05200000  0.86830000  1
  O  O37  1  0.05200000  0.48640000  0.36830000  1
  O  O38  1  0.65380000  0.85860000  0.03560000  1
  O  O39  1  0.85860000  0.65380000  0.53560000  1
  O  O40  1  0.34620000  0.14140000  0.96440000  1
  O  O41  1  0.14140000  0.34620000  0.46440000  1
  O  O42  1  0.51360000  0.94800000  0.13170000  1
  O  O43  1  0.94800000  0.51360000  0.63170000  1
  O  O44  1  0.39240000  0.95680000  0.59390000  1
  O  O45  1  0.95680000  0.39240000  0.09390000  1
  O  O46  1  0.52310000  0.73990000  0.14710000  1
  O  O47  1  0.73990000  0.52310000  0.64710000  1
  O  O48  1  0.44810000  0.81430000  0.99000000  1
  O  O49  1  0.81430000  0.44810000  0.49000000  1
  O  O50  1  0.40390000  0.83850000  0.74880000  1
  O  O51  1  0.83850000  0.40390000  0.24880000  1
  O  O52  1  0.24320000  0.96080000  0.72620000  1
  O  O53  1  0.96080000  0.24320000  0.22620000  1
  O  O54  1  0.23000000  0.94200000  0.07540000  1
  O  O55  1  0.94200000  0.23000000  0.57540000  1
  O  O56  1  0.11650000  0.03090000  0.18530000  1
  O  O57  1  0.03090000  0.11650000  0.68530000  1
  O  O58  1  0.11620000  0.99280000  0.90020000  1
  O  O59  1  0.99280000  0.11620000  0.40020000  1
  O  O60  1  0.25570000  0.78910000  0.60790000  1
  O  O61  1  0.78910000  0.25570000  0.10790000  1
  S  S62  1  0.67502000  0.11326000  0.33443000  1
  S  S63  1  0.11326000  0.67502000  0.83443000  1
  S  S64  1  0.46470000  0.16356000  0.92380000  1
  S  S65  1  0.16356000  0.46470000  0.42380000  1
  S  S66  1  0.53530000  0.83644000  0.07620000  1
  S  S67  1  0.83644000  0.53530000  0.57620000  1
  S  S68  1  0.32498000  0.88674000  0.66557000  1
  S  S69  1  0.88674000  0.32498000  0.16557000  1
