# generated using pymatgen
data_LaH12C21NO6
_symmetry_space_group_name_H-M   'P 1'
_cell_length_a   13.17050000
_cell_length_b   14.66999396
_cell_length_c   14.66999396
_cell_angle_alpha   111.44843321
_cell_angle_beta   107.41326180
_cell_angle_gamma   107.41326180
_symmetry_Int_Tables_number   1
_chemical_formula_structural   LaH12C21NO6
_chemical_formula_sum   'La3 H36 C63 N3 O18'
_cell_volume   2234.83399429
_cell_formula_units_Z   3
loop_
 _symmetry_equiv_pos_site_id
 _symmetry_equiv_pos_as_xyz
  1  'x, y, z'
loop_
 _atom_site_type_symbol
 _atom_site_label
 _atom_site_symmetry_multiplicity
 _atom_site_fract_x
 _atom_site_fract_y
 _atom_site_fract_z
 _atom_site_occupancy
  C  C0  1  1.00000000  0.62950000  0.37050000  1
  C  C1  1  1.00000000  0.51610000  0.48390000  1
  C  C2  1  1.00000000  0.45430000  0.54570000  1
  C  C3  1  0.65510000  0.51250000  0.54850000  1
  C  C4  1  0.67640000  0.63060000  0.43460000  1
  C  C5  1  0.64200000  0.45490000  0.61180000  1
  C  C6  1  0.94850000  0.58600000  0.49290000  1
  C  C7  1  0.34840000  0.54940000  0.53300000  1
  C  C8  1  0.95070000  0.64360000  0.43920000  1
  C  C9  1  0.33940000  0.60920000  0.47800000  1
  C  C10  1  0.37050000  0.74100000  0.37050000  1
  C  C11  1  0.30710000  0.79560000  0.35640000  1
  C  C12  1  0.04580000  0.80400000  0.36940000  1
  C  C13  1  0.99710000  0.85890000  0.32020000  1
  C  C14  1  0.67690000  0.67980000  0.53870000  1
  C  C15  1  0.66580000  0.62120000  0.59790000  1
  C  C16  1  0.03020000  0.38820000  0.84310000  1
  C  C17  1  0.48850000  0.79560000  0.43920000  1
  C  C18  1  0.75820000  0.80400000  0.43460000  1
  C  C19  1  0.73020000  0.86880000  0.39080000  1
  C  C20  1  0.81290000  0.45490000  0.84310000  1
  C  C21  1  0.36250000  0.90690000  0.41400000  1
  C  C22  1  0.13860000  0.86880000  0.47800000  1
  C  C23  1  0.04460000  0.97670000  0.37880000  1
  C  C24  1  0.45430000  0.45430000  0.90860000  1
  C  C25  1  0.86180000  0.85890000  0.53870000  1
  C  C26  1  0.54440000  0.90690000  0.49290000  1
  C  C27  1  0.10660000  0.45150000  0.96400000  1
  C  C28  1  0.06790000  0.40210000  0.02330000  1
  C  C29  1  0.79900000  0.98360000  0.45060000  1
  C  C30  1  0.48390000  0.96780000  0.48390000  1
  C  C31  1  0.85740000  0.51250000  0.96400000  1
  C  C32  1  0.81540000  0.46700000  0.01640000  1
  C  C33  1  0.18460000  0.98360000  0.53300000  1
  C  C34  1  0.14260000  0.03600000  0.48750000  1
  C  C35  1  0.51610000  0.51610000  0.03220000  1
  C  C36  1  0.20100000  0.54940000  0.01640000  1
  C  C37  1  0.93210000  0.97670000  0.59790000  1
  C  C38  1  0.89340000  0.03600000  0.54850000  1
  C  C39  1  0.45560000  0.50710000  0.09310000  1
  C  C40  1  0.13820000  0.46130000  0.14110000  1
  C  C41  1  0.54570000  0.09140000  0.54570000  1
  C  C42  1  0.95540000  0.62120000  0.02330000  1
  C  C43  1  0.86140000  0.52200000  0.13120000  1
  C  C44  1  0.63750000  0.58600000  0.09310000  1
  C  C45  1  0.18710000  0.15690000  0.54510000  1
  C  C46  1  0.26980000  0.60920000  0.13120000  1
  C  C47  1  0.24180000  0.56540000  0.19600000  1
  C  C48  1  0.51150000  0.56080000  0.20440000  1
  C  C49  1  0.96980000  0.15690000  0.61180000  1
  C  C50  1  0.33420000  0.40210000  0.37880000  1
  C  C51  1  0.32310000  0.46130000  0.32020000  1
  C  C52  1  0.00290000  0.67980000  0.14110000  1
  C  C53  1  0.95420000  0.63060000  0.19600000  1
  C  C54  1  0.69290000  0.64360000  0.20440000  1
  C  C55  1  0.62950000  0.62950000  0.25900000  1
  C  C56  1  0.66060000  0.52200000  0.39080000  1
  C  C57  1  0.04930000  0.56080000  0.35640000  1
  C  C58  1  0.65160000  0.46700000  0.45060000  1
  C  C59  1  0.05150000  0.50710000  0.41400000  1
  C  C60  1  0.35800000  0.38820000  0.54510000  1
  C  C61  1  0.32360000  0.56540000  0.36940000  1
  C  C62  1  0.34490000  0.45150000  0.48750000  1
  H  H63  1  0.22560000  0.75690000  0.30720000  1
  H  H64  1  0.93370000  0.81790000  0.24930000  1
  H  H65  1  0.91080000  0.59370000  0.53770000  1
  H  H66  1  0.91840000  0.69280000  0.44970000  1
  H  H67  1  0.66550000  0.83510000  0.32160000  1
  H  H68  1  0.35730000  0.57980000  0.60460000  1
  H  H69  1  0.34390000  0.67840000  0.51350000  1
  H  H70  1  0.53130000  0.75690000  0.44970000  1
  H  H71  1  0.66560000  0.65260000  0.66550000  1
  H  H72  1  0.68440000  0.75070000  0.56860000  1
  H  H73  1  0.00010000  0.33450000  0.98710000  1
  H  H74  1  0.16960000  0.83510000  0.51350000  1
  H  H75  1  0.31710000  0.94400000  0.40630000  1
  H  H76  1  0.01300000  0.01290000  0.34740000  1
  H  H77  1  0.75270000  0.39540000  0.97520000  1
  H  H78  1  0.88420000  0.81790000  0.56860000  1
  H  H79  1  0.77750000  0.02480000  0.42020000  1
  H  H80  1  0.62690000  0.94400000  0.53770000  1
  H  H81  1  0.37310000  0.46230000  0.05600000  1
  H  H82  1  0.22250000  0.57980000  0.97520000  1
  H  H83  1  0.11580000  0.43140000  0.18210000  1
  H  H84  1  0.24730000  0.02480000  0.60460000  1
  H  H85  1  0.98700000  0.65260000  0.98710000  1
  H  H86  1  0.68290000  0.59370000  0.05600000  1
  H  H87  1  0.83040000  0.48650000  0.16490000  1
  H  H88  1  0.99990000  0.01290000  0.66550000  1
  H  H89  1  0.31560000  0.43140000  0.24930000  1
  H  H90  1  0.33440000  0.33450000  0.34740000  1
  H  H91  1  0.46870000  0.55030000  0.24310000  1
  H  H92  1  0.65610000  0.48650000  0.32160000  1
  H  H93  1  0.64270000  0.39540000  0.42020000  1
  H  H94  1  0.33450000  0.67840000  0.16490000  1
  H  H95  1  0.08160000  0.55030000  0.30720000  1
  H  H96  1  0.08920000  0.46230000  0.40630000  1
  H  H97  1  0.06630000  0.75070000  0.18210000  1
  H  H98  1  0.77440000  0.69280000  0.24310000  1
  La  La99  1  0.50000000  0.31569667  0.68430333  1
  La  La100  1  0.18430333  0.36860667  0.68430333  1
  La  La101  1  0.81569667  0.31569667  0.63139333  1
  N  N102  1  1.00000000  0.68840000  0.31160000  1
  N  N103  1  0.68840000  0.68840000  0.37680000  1
  N  N104  1  0.31160000  0.62320000  0.31160000  1
  O  O105  1  0.92360000  0.43980000  0.58150000  1
  O  O106  1  0.35440000  0.42380000  0.63820000  1
  O  O107  1  0.92630000  0.30660000  0.80050000  1
  O  O108  1  0.71620000  0.36180000  0.78560000  1
  O  O109  1  0.61970000  0.49390000  0.69340000  1
  O  O110  1  0.06940000  0.42380000  0.78560000  1
  O  O111  1  0.34210000  0.41850000  0.85830000  1
  O  O112  1  0.87420000  0.49390000  0.80050000  1
  O  O113  1  0.51620000  0.43980000  0.85830000  1
  O  O114  1  0.48380000  0.14170000  0.56020000  1
  O  O115  1  0.12580000  0.19950000  0.50610000  1
  O  O116  1  0.65790000  0.14170000  0.58150000  1
  O  O117  1  0.93060000  0.21440000  0.57620000  1
  O  O118  1  0.38030000  0.30660000  0.50610000  1
  O  O119  1  0.28380000  0.21440000  0.63820000  1
  O  O120  1  0.07370000  0.19950000  0.69340000  1
  O  O121  1  0.64560000  0.36180000  0.57620000  1
  O  O122  1  0.07640000  0.41850000  0.56020000  1
