# generated using pymatgen
data_CoH21C31N5O4
_symmetry_space_group_name_H-M   'P 1'
_cell_length_a   17.31100000
_cell_length_b   20.11900000
_cell_length_c   20.36500000
_cell_angle_alpha   90.00000000
_cell_angle_beta   103.16600000
_cell_angle_gamma   90.00000000
_symmetry_Int_Tables_number   1
_chemical_formula_structural   CoH21C31N5O4
_chemical_formula_sum   'Co8 H168 C248 N40 O32'
_cell_volume   6906.28476782
_cell_formula_units_Z   8
loop_
 _symmetry_equiv_pos_site_id
 _symmetry_equiv_pos_as_xyz
  1  'x, y, z'
loop_
 _atom_site_type_symbol
 _atom_site_label
 _atom_site_symmetry_multiplicity
 _atom_site_fract_x
 _atom_site_fract_y
 _atom_site_fract_z
 _atom_site_occupancy
  Co  Co0  1  0.76328000  0.36450000  0.87510000  1
  Co  Co1  1  0.26328000  0.13550000  0.87510000  1
  Co  Co2  1  0.74419000  0.87184000  0.61591000  1
  Co  Co3  1  0.24419000  0.62816000  0.61591000  1
  Co  Co4  1  0.75581000  0.37184000  0.38409000  1
  Co  Co5  1  0.25581000  0.12816000  0.38409000  1
  Co  Co6  1  0.73672000  0.86450000  0.12490000  1
  Co  Co7  1  0.23672000  0.63550000  0.12490000  1
  H  H8  1  0.92830000  0.39450000  0.98600000  1
  H  H9  1  0.42830000  0.10550000  0.98600000  1
  H  H10  1  0.88810000  0.75660000  0.97710000  1
  H  H11  1  0.38810000  0.74340000  0.97710000  1
  H  H12  1  0.43090000  0.93880000  0.97500000  1
  H  H13  1  0.93090000  0.56120000  0.97500000  1
  H  H14  1  0.23190000  0.36750000  0.96480000  1
  H  H15  1  0.73190000  0.13250000  0.96480000  1
  H  H16  1  0.21440000  0.46880000  0.96390000  1
  H  H17  1  0.71440000  0.03120000  0.96390000  1
  H  H18  1  0.24280000  0.25530000  0.96300000  1
  H  H19  1  0.74280000  0.24470000  0.96300000  1
  H  H20  1  0.61380000  0.42250000  0.93240000  1
  H  H21  1  0.11380000  0.07750000  0.93240000  1
  H  H22  1  0.03750000  0.25440000  0.90510000  1
  H  H23  1  0.53750000  0.24560000  0.90510000  1
  H  H24  1  0.27450000  0.75830000  0.89520000  1
  H  H25  1  0.77450000  0.74170000  0.89520000  1
  H  H26  1  0.31950000  0.95330000  0.89040000  1
  H  H27  1  0.81950000  0.54670000  0.89040000  1
  H  H28  1  0.73780000  0.85900000  0.87200000  1
  H  H29  1  0.23780000  0.64100000  0.87200000  1
  H  H30  1  0.47730000  0.43130000  0.87120000  1
  H  H31  1  0.97730000  0.06870000  0.87120000  1
  H  H32  1  0.17620000  0.95450000  0.85640000  1
  H  H33  1  0.67620000  0.54550000  0.85640000  1
  H  H34  1  0.90000000  0.26610000  0.84020000  1
  H  H35  1  0.40000000  0.23390000  0.84020000  1
  H  H36  1  0.21860000  0.77650000  0.78420000  1
  H  H37  1  0.71860000  0.72350000  0.78420000  1
  H  H38  1  0.06080000  0.96250000  0.77380000  1
  H  H39  1  0.56080000  0.53750000  0.77380000  1
  H  H40  1  0.23530000  0.46960000  0.77200000  1
  H  H41  1  0.73530000  0.03040000  0.77200000  1
  H  H42  1  0.22410000  0.25580000  0.77180000  1
  H  H43  1  0.72410000  0.24420000  0.77180000  1
  H  H44  1  0.21760000  0.36770000  0.76900000  1
  H  H45  1  0.71760000  0.13230000  0.76900000  1
  H  H46  1  0.60000000  0.34240000  0.75930000  1
  H  H47  1  0.10000000  0.15760000  0.75930000  1
  H  H48  1  0.41920000  0.47290000  0.73650000  1
  H  H49  1  0.91920000  0.02710000  0.73650000  1
  H  H50  1  0.43910000  0.27580000  0.73530000  1
  H  H51  1  0.93910000  0.22420000  0.73530000  1
  H  H52  1  0.27440000  0.95710000  0.73230000  1
  H  H53  1  0.77440000  0.54290000  0.73230000  1
  H  H54  1  0.91320000  0.89530000  0.72940000  1
  H  H55  1  0.41320000  0.60470000  0.72940000  1
  H  H56  1  0.35190000  0.85220000  0.70990000  1
  H  H57  1  0.85190000  0.64780000  0.70990000  1
  H  H58  1  0.10390000  0.78490000  0.70200000  1
  H  H59  1  0.60390000  0.71510000  0.70200000  1
  H  H60  1  0.84150000  0.76020000  0.70150000  1
  H  H61  1  0.34150000  0.73980000  0.70150000  1
  H  H62  1  0.60260000  0.83280000  0.69270000  1
  H  H63  1  0.10260000  0.66720000  0.69270000  1
  H  H64  1  0.32380000  0.26920000  0.65330000  1
  H  H65  1  0.82380000  0.23080000  0.65330000  1
  H  H66  1  0.30520000  0.46660000  0.65240000  1
  H  H67  1  0.80520000  0.03340000  0.65240000  1
  H  H68  1  0.46230000  0.82320000  0.64140000  1
  H  H69  1  0.96230000  0.67680000  0.64140000  1
  H  H70  1  0.77780000  0.36850000  0.63810000  1
  H  H71  1  0.27780000  0.13150000  0.63810000  1
  H  H72  1  0.17910000  0.45130000  0.61690000  1
  H  H73  1  0.67910000  0.04870000  0.61690000  1
  H  H74  1  0.03120000  0.85040000  0.59130000  1
  H  H75  1  0.53120000  0.64960000  0.59130000  1
  H  H76  1  0.24030000  0.27570000  0.55290000  1
  H  H77  1  0.74030000  0.22430000  0.55290000  1
  H  H78  1  0.17170000  0.86590000  0.54810000  1
  H  H79  1  0.67170000  0.63410000  0.54810000  1
  H  H80  1  0.16370000  0.75290000  0.54530000  1
  H  H81  1  0.66370000  0.74710000  0.54530000  1
  H  H82  1  0.88970000  0.85320000  0.53910000  1
  H  H83  1  0.38970000  0.64680000  0.53910000  1
  H  H84  1  0.06230000  0.44900000  0.53500000  1
  H  H85  1  0.56230000  0.05100000  0.53500000  1
  H  H86  1  0.26290000  0.96120000  0.53410000  1
  H  H87  1  0.76290000  0.53880000  0.53410000  1
  H  H88  1  0.37550000  0.77250000  0.52820000  1
  H  H89  1  0.87550000  0.72750000  0.52820000  1
  H  H90  1  0.57360000  0.88900000  0.50560000  1
  H  H91  1  0.07360000  0.61100000  0.50560000  1
  H  H92  1  0.92640000  0.38900000  0.49440000  1
  H  H93  1  0.42640000  0.11100000  0.49440000  1
  H  H94  1  0.12450000  0.27250000  0.47180000  1
  H  H95  1  0.62450000  0.22750000  0.47180000  1
  H  H96  1  0.23710000  0.46120000  0.46590000  1
  H  H97  1  0.73710000  0.03880000  0.46590000  1
  H  H98  1  0.43770000  0.94900000  0.46500000  1
  H  H99  1  0.93770000  0.55100000  0.46500000  1
  H  H100  1  0.61030000  0.35320000  0.46090000  1
  H  H101  1  0.11030000  0.14680000  0.46090000  1
  H  H102  1  0.33630000  0.25290000  0.45470000  1
  H  H103  1  0.83630000  0.24710000  0.45470000  1
  H  H104  1  0.32830000  0.36590000  0.45190000  1
  H  H105  1  0.82830000  0.13410000  0.45190000  1
  H  H106  1  0.25970000  0.77570000  0.44710000  1
  H  H107  1  0.75970000  0.72430000  0.44710000  1
  H  H108  1  0.46880000  0.35040000  0.40870000  1
  H  H109  1  0.96880000  0.14960000  0.40870000  1
  H  H110  1  0.32090000  0.95130000  0.38310000  1
  H  H111  1  0.82090000  0.54870000  0.38310000  1
  H  H112  1  0.72220000  0.86850000  0.36190000  1
  H  H113  1  0.22220000  0.63150000  0.36190000  1
  H  H114  1  0.03770000  0.32320000  0.35860000  1
  H  H115  1  0.53770000  0.17680000  0.35860000  1
  H  H116  1  0.19480000  0.96660000  0.34760000  1
  H  H117  1  0.69480000  0.53340000  0.34760000  1
  H  H118  1  0.17620000  0.76920000  0.34670000  1
  H  H119  1  0.67620000  0.73080000  0.34670000  1
  H  H120  1  0.89740000  0.33280000  0.30730000  1
  H  H121  1  0.39740000  0.16720000  0.30730000  1
  H  H122  1  0.65850000  0.26020000  0.29850000  1
  H  H123  1  0.15850000  0.23980000  0.29850000  1
  H  H124  1  0.39610000  0.28490000  0.29800000  1
  H  H125  1  0.89610000  0.21510000  0.29800000  1
  H  H126  1  0.14810000  0.35220000  0.29010000  1
  H  H127  1  0.64810000  0.14780000  0.29010000  1
  H  H128  1  0.58680000  0.39530000  0.27060000  1
  H  H129  1  0.08680000  0.10470000  0.27060000  1
  H  H130  1  0.22560000  0.45710000  0.26770000  1
  H  H131  1  0.72560000  0.04290000  0.26770000  1
  H  H132  1  0.06090000  0.77580000  0.26470000  1
  H  H133  1  0.56090000  0.72420000  0.26470000  1
  H  H134  1  0.08080000  0.97290000  0.26350000  1
  H  H135  1  0.58080000  0.52710000  0.26350000  1
  H  H136  1  0.90000000  0.84240000  0.24070000  1
  H  H137  1  0.40000000  0.65760000  0.24070000  1
  H  H138  1  0.28240000  0.86770000  0.23100000  1
  H  H139  1  0.78240000  0.63230000  0.23100000  1
  H  H140  1  0.27590000  0.75580000  0.22820000  1
  H  H141  1  0.77590000  0.74420000  0.22820000  1
  H  H142  1  0.26470000  0.96960000  0.22800000  1
  H  H143  1  0.76470000  0.53040000  0.22800000  1
  H  H144  1  0.43920000  0.46250000  0.22620000  1
  H  H145  1  0.93920000  0.03750000  0.22620000  1
  H  H146  1  0.28140000  0.27650000  0.21580000  1
  H  H147  1  0.78140000  0.22350000  0.21580000  1
  H  H148  1  0.60000000  0.76610000  0.15980000  1
  H  H149  1  0.10000000  0.73390000  0.15980000  1
  H  H150  1  0.32380000  0.45450000  0.14360000  1
  H  H151  1  0.82380000  0.04550000  0.14360000  1
  H  H152  1  0.02270000  0.93130000  0.12880000  1
  H  H153  1  0.52270000  0.56870000  0.12880000  1
  H  H154  1  0.76220000  0.35900000  0.12800000  1
  H  H155  1  0.26220000  0.14100000  0.12800000  1
  H  H156  1  0.18050000  0.45330000  0.10960000  1
  H  H157  1  0.68050000  0.04670000  0.10960000  1
  H  H158  1  0.22550000  0.25830000  0.10480000  1
  H  H159  1  0.72550000  0.24170000  0.10480000  1
  H  H160  1  0.46250000  0.75440000  0.09490000  1
  H  H161  1  0.96250000  0.74560000  0.09490000  1
  H  H162  1  0.88620000  0.92250000  0.06760000  1
  H  H163  1  0.38620000  0.57750000  0.06760000  1
  H  H164  1  0.25720000  0.75530000  0.03700000  1
  H  H165  1  0.75720000  0.74470000  0.03700000  1
  H  H166  1  0.28560000  0.96880000  0.03610000  1
  H  H167  1  0.78560000  0.53120000  0.03610000  1
  H  H168  1  0.26810000  0.86750000  0.03520000  1
  H  H169  1  0.76810000  0.63250000  0.03520000  1
  H  H170  1  0.06910000  0.43880000  0.02500000  1
  H  H171  1  0.56910000  0.06120000  0.02500000  1
  H  H172  1  0.61190000  0.25660000  0.02290000  1
  H  H173  1  0.11190000  0.24340000  0.02290000  1
  H  H174  1  0.57170000  0.89450000  0.01400000  1
  H  H175  1  0.07170000  0.60550000  0.01400000  1
  C  C176  1  0.72910000  0.90079000  0.99275000  1
  C  C177  1  0.22910000  0.59921000  0.99275000  1
  C  C178  1  0.42160000  0.84032000  0.98354000  1
  C  C179  1  0.92160000  0.65968000  0.98354000  1
  C  C180  1  0.37400000  0.78561000  0.95982000  1
  C  C181  1  0.87400000  0.71439000  0.95982000  1
  C  C182  1  0.39980000  0.90223000  0.95810000  1
  C  C183  1  0.89980000  0.59777000  0.95810000  1
  C  C184  1  0.93840000  0.36156000  0.95709000  1
  C  C185  1  0.43840000  0.13844000  0.95709000  1
  C  C186  1  0.72673000  0.93917000  0.92809000  1
  C  C187  1  0.22673000  0.56083000  0.92809000  1
  C  C188  1  0.22114000  0.49180000  0.92598000  1
  C  C189  1  0.72114000  0.00820000  0.92598000  1
  C  C190  1  0.23210000  0.34631000  0.92432000  1
  C  C191  1  0.73210000  0.15369000  0.92432000  1
  C  C192  1  0.23860000  0.27812000  0.92262000  1
  C  C193  1  0.73860000  0.22188000  0.92262000  1
  C  C194  1  0.99970000  0.28420000  0.91340000  1
  C  C195  1  0.49970000  0.21580000  0.91340000  1
  C  C196  1  0.30630000  0.79482000  0.91073000  1
  C  C197  1  0.80630000  0.70518000  0.91073000  1
  C  C198  1  0.33260000  0.91107000  0.90804000  1
  C  C199  1  0.83260000  0.58893000  0.90804000  1
  C  C200  1  0.59410000  0.40750000  0.88860000  1
  C  C201  1  0.09410000  0.09250000  0.88860000  1
  C  C202  1  0.28350000  0.85702000  0.88334000  1
  C  C203  1  0.78350000  0.64298000  0.88334000  1
  C  C204  1  0.92330000  0.29120000  0.87780000  1
  C  C205  1  0.42330000  0.20880000  0.87780000  1
  C  C206  1  0.73494000  0.90514000  0.87097000  1
  C  C207  1  0.23494000  0.59486000  0.87097000  1
  C  C208  1  0.22551000  0.45650000  0.86772000  1
  C  C209  1  0.72551000  0.04350000  0.86772000  1
  C  C210  1  0.22600000  0.38287000  0.86705000  1
  C  C211  1  0.72600000  0.11713000  0.86705000  1
  C  C212  1  0.51830000  0.41140000  0.85560000  1
  C  C213  1  0.01830000  0.08860000  0.85560000  1
  C  C214  1  0.20960000  0.86443000  0.82984000  1
  C  C215  1  0.70960000  0.63557000  0.82984000  1
  C  C216  1  0.16170000  0.92000000  0.82566000  1
  C  C217  1  0.66170000  0.58000000  0.82566000  1
  C  C218  1  0.73901000  0.93833000  0.81254000  1
  C  C219  1  0.23901000  0.56167000  0.81254000  1
  C  C220  1  0.22840000  0.27836000  0.81230000  1
  C  C221  1  0.72840000  0.22164000  0.81230000  1
  C  C222  1  0.23352000  0.49226000  0.81141000  1
  C  C223  1  0.73352000  0.00774000  0.81141000  1
  C  C224  1  0.22320000  0.34608000  0.81020000  1
  C  C225  1  0.72320000  0.15392000  0.81020000  1
  C  C226  1  0.58600000  0.36370000  0.79540000  1
  C  C227  1  0.08600000  0.13630000  0.79540000  1
  C  C228  1  0.18680000  0.81400000  0.78248000  1
  C  C229  1  0.68680000  0.68600000  0.78248000  1
  C  C230  1  0.09240000  0.92479000  0.77620000  1
  C  C231  1  0.59240000  0.57521000  0.77620000  1
  C  C232  1  0.77500000  0.41481000  0.76082000  1
  C  C233  1  0.27500000  0.08519000  0.76082000  1
  C  C234  1  0.75300000  0.89953000  0.75321000  1
  C  C235  1  0.25300000  0.60047000  0.75321000  1
  C  C236  1  0.44130000  0.37532000  0.74334000  1
  C  C237  1  0.94130000  0.12468000  0.74334000  1
  C  C238  1  0.11810000  0.81886000  0.73340000  1
  C  C239  1  0.61810000  0.68114000  0.73340000  1
  C  C240  1  0.06990000  0.87390000  0.73049000  1
  C  C241  1  0.56990000  0.62610000  0.73049000  1
  C  C242  1  0.40040000  0.43170000  0.71940000  1
  C  C243  1  0.90040000  0.06830000  0.71940000  1
  C  C244  1  0.41190000  0.31440000  0.71890000  1
  C  C245  1  0.91190000  0.18560000  0.71890000  1
  C  C246  1  0.77640000  0.44986000  0.69607000  1
  C  C247  1  0.27640000  0.05014000  0.69607000  1
  C  C248  1  0.27300000  0.98113000  0.69309000  1
  C  C249  1  0.77300000  0.51887000  0.69309000  1
  C  C250  1  0.92470000  0.88536000  0.68805000  1
  C  C251  1  0.42470000  0.61464000  0.68805000  1
  C  C252  1  0.31330000  0.83327000  0.67573000  1
  C  C253  1  0.81330000  0.66673000  0.67573000  1
  C  C254  1  0.30670000  0.76557000  0.67026000  1
  C  C255  1  0.80670000  0.73443000  0.67026000  1
  C  C256  1  0.34260000  0.31050000  0.67010000  1
  C  C257  1  0.84260000  0.18950000  0.67010000  1
  C  C258  1  0.33100000  0.42770000  0.66970000  1
  C  C259  1  0.83100000  0.07230000  0.66970000  1
  C  C260  1  0.57910000  0.84280000  0.64800000  1
  C  C261  1  0.07910000  0.65720000  0.64800000  1
  C  C262  1  0.29970000  0.36762000  0.64547000  1
  C  C263  1  0.79970000  0.13238000  0.64547000  1
  C  C264  1  0.77550000  0.41470000  0.63692000  1
  C  C265  1  0.27550000  0.08530000  0.63692000  1
  C  C266  1  0.26769000  0.94738000  0.63289000  1
  C  C267  1  0.76769000  0.55262000  0.63289000  1
  C  C268  1  0.26230000  0.87351000  0.63011000  1
  C  C269  1  0.76230000  0.62649000  0.63011000  1
  C  C270  1  0.50150000  0.83760000  0.62020000  1
  C  C271  1  0.00150000  0.66240000  0.62020000  1
  C  C272  1  0.99060000  0.86050000  0.61270000  1
  C  C273  1  0.49060000  0.63950000  0.61270000  1
  C  C274  1  0.22320000  0.36423000  0.59417000  1
  C  C275  1  0.72320000  0.13577000  0.59417000  1
  C  C276  1  0.16840000  0.41510000  0.58770000  1
  C  C277  1  0.66840000  0.08490000  0.58770000  1
  C  C278  1  0.91210000  0.86200000  0.58430000  1
  C  C279  1  0.41210000  0.63800000  0.58430000  1
  C  C280  1  0.20660000  0.84112000  0.58041000  1
  C  C281  1  0.70660000  0.65888000  0.58041000  1
  C  C282  1  0.20260000  0.77306000  0.57842000  1
  C  C283  1  0.70260000  0.72694000  0.57842000  1
  C  C284  1  0.77130000  0.44775000  0.57589000  1
  C  C285  1  0.27130000  0.05225000  0.57589000  1
  C  C286  1  0.26670000  0.98357000  0.57473000  1
  C  C287  1  0.76670000  0.51643000  0.57473000  1
  C  C288  1  0.20460000  0.31070000  0.54960000  1
  C  C289  1  0.70460000  0.18930000  0.54960000  1
  C  C290  1  0.56370000  0.87359000  0.54597000  1
  C  C291  1  0.06370000  0.62641000  0.54597000  1
  C  C292  1  0.09800000  0.41390000  0.53900000  1
  C  C293  1  0.59800000  0.08610000  0.53900000  1
  C  C294  1  0.76910000  0.40970000  0.51150000  1
  C  C295  1  0.26910000  0.09030000  0.51150000  1
  C  C296  1  0.41870000  0.85998000  0.50346000  1
  C  C297  1  0.91870000  0.64002000  0.50346000  1
  C  C298  1  0.13530000  0.30840000  0.50130000  1
  C  C299  1  0.63530000  0.19160000  0.50130000  1
  C  C300  1  0.36470000  0.80840000  0.49870000  1
  C  C301  1  0.86470000  0.69160000  0.49870000  1
  C  C302  1  0.08130000  0.35998000  0.49654000  1
  C  C303  1  0.58130000  0.14002000  0.49654000  1
  C  C304  1  0.73090000  0.90970000  0.48850000  1
  C  C305  1  0.23090000  0.59030000  0.48850000  1
  C  C306  1  0.40200000  0.91390000  0.46100000  1
  C  C307  1  0.90200000  0.58610000  0.46100000  1
  C  C308  1  0.93630000  0.37359000  0.45403000  1
  C  C309  1  0.43630000  0.12641000  0.45403000  1
  C  C310  1  0.29540000  0.81070000  0.45040000  1
  C  C311  1  0.79540000  0.68930000  0.45040000  1
  C  C312  1  0.23330000  0.48357000  0.42527000  1
  C  C313  1  0.73330000  0.01643000  0.42527000  1
  C  C314  1  0.72870000  0.94775000  0.42411000  1
  C  C315  1  0.22870000  0.55225000  0.42411000  1
  C  C316  1  0.29740000  0.27306000  0.42158000  1
  C  C317  1  0.79740000  0.22694000  0.42158000  1
  C  C318  1  0.29340000  0.34112000  0.41959000  1
  C  C319  1  0.79340000  0.15888000  0.41959000  1
  C  C320  1  0.58790000  0.36200000  0.41570000  1
  C  C321  1  0.08790000  0.13800000  0.41570000  1
  C  C322  1  0.33160000  0.91510000  0.41230000  1
  C  C323  1  0.83160000  0.58490000  0.41230000  1
  C  C324  1  0.27680000  0.86423000  0.40583000  1
  C  C325  1  0.77680000  0.63577000  0.40583000  1
  C  C326  1  0.50940000  0.36050000  0.38730000  1
  C  C327  1  0.00940000  0.13950000  0.38730000  1
  C  C328  1  0.99850000  0.33760000  0.37980000  1
  C  C329  1  0.49850000  0.16240000  0.37980000  1
  C  C330  1  0.23770000  0.37351000  0.36989000  1
  C  C331  1  0.73770000  0.12649000  0.36989000  1
  C  C332  1  0.23231000  0.44738000  0.36711000  1
  C  C333  1  0.73231000  0.05262000  0.36711000  1
  C  C334  1  0.72450000  0.91470000  0.36308000  1
  C  C335  1  0.22450000  0.58530000  0.36308000  1
  C  C336  1  0.20030000  0.86762000  0.35453000  1
  C  C337  1  0.70030000  0.63238000  0.35453000  1
  C  C338  1  0.92090000  0.34280000  0.35200000  1
  C  C339  1  0.42090000  0.15720000  0.35200000  1
  C  C340  1  0.16900000  0.92770000  0.33030000  1
  C  C341  1  0.66900000  0.57230000  0.33030000  1
  C  C342  1  0.15740000  0.81050000  0.32990000  1
  C  C343  1  0.65740000  0.68950000  0.32990000  1
  C  C344  1  0.19330000  0.26557000  0.32974000  1
  C  C345  1  0.69330000  0.23443000  0.32974000  1
  C  C346  1  0.18670000  0.33333333  0.32427000  1
  C  C347  1  0.68670000  0.16673000  0.32427000  1
  C  C348  1  0.57530000  0.38536000  0.31195000  1
  C  C349  1  0.07530000  0.11464000  0.31195000  1
  C  C350  1  0.22700000  0.48113000  0.30691000  1
  C  C351  1  0.72700000  0.01887000  0.30691000  1
  C  C352  1  0.72360000  0.94986000  0.30393000  1
  C  C353  1  0.22360000  0.55014000  0.30393000  1
  C  C354  1  0.08810000  0.81440000  0.28110000  1
  C  C355  1  0.58810000  0.68560000  0.28110000  1
  C  C356  1  0.09960000  0.93170000  0.28060000  1
  C  C357  1  0.59960000  0.56830000  0.28060000  1
  C  C358  1  0.43010000  0.37390000  0.26951000  1
  C  C359  1  0.93010000  0.12610000  0.26951000  1
  C  C360  1  0.38190000  0.31886000  0.26660000  1
  C  C361  1  0.88190000  0.18114000  0.26660000  1
  C  C362  1  0.05870000  0.87532000  0.25666000  1
  C  C363  1  0.55870000  0.62468000  0.25666000  1
  C  C364  1  0.74700000  0.39953000  0.24679000  1
  C  C365  1  0.24700000  0.10047000  0.24679000  1
  C  C366  1  0.72500000  0.91481000  0.23918000  1
  C  C367  1  0.22500000  0.58519000  0.23918000  1
  C  C368  1  0.40760000  0.42479000  0.22380000  1
  C  C369  1  0.90760000  0.07521000  0.22380000  1
  C  C370  1  0.31320000  0.31400000  0.21752000  1
  C  C371  1  0.81320000  0.18600000  0.21752000  1
  C  C372  1  0.91400000  0.86370000  0.20460000  1
  C  C373  1  0.41400000  0.63630000  0.20460000  1
  C  C374  1  0.27680000  0.84608000  0.18980000  1
  C  C375  1  0.77680000  0.65392000  0.18980000  1
  C  C376  1  0.26648000  0.99226000  0.18859000  1
  C  C377  1  0.76648000  0.50774000  0.18859000  1
  C  C378  1  0.27160000  0.77836000  0.18770000  1
  C  C379  1  0.77160000  0.72164000  0.18770000  1
  C  C380  1  0.76099000  0.43833000  0.18746000  1
  C  C381  1  0.26099000  0.06167000  0.18746000  1
  C  C382  1  0.33830000  0.42000000  0.17434000  1
  C  C383  1  0.83830000  0.08000000  0.17434000  1
  C  C384  1  0.29040000  0.36443000  0.17016000  1
  C  C385  1  0.79040000  0.13557000  0.17016000  1
  C  C386  1  0.98170000  0.91140000  0.14440000  1
  C  C387  1  0.48170000  0.58860000  0.14440000  1
  C  C388  1  0.27400000  0.88287000  0.13295000  1
  C  C389  1  0.77400000  0.61713000  0.13295000  1
  C  C390  1  0.27449000  0.95650000  0.13228000  1
  C  C391  1  0.77449000  0.54350000  0.13228000  1
  C  C392  1  0.76506000  0.40514000  0.12903000  1
  C  C393  1  0.26506000  0.09486000  0.12903000  1
  C  C394  1  0.57670000  0.79120000  0.12220000  1
  C  C395  1  0.07670000  0.70880000  0.12220000  1
  C  C396  1  0.21650000  0.35702000  0.11666000  1
  C  C397  1  0.71650000  0.14298000  0.11666000  1
  C  C398  1  0.90590000  0.90750000  0.11140000  1
  C  C399  1  0.40590000  0.59250000  0.11140000  1
  C  C400  1  0.16740000  0.41107000  0.09196000  1
  C  C401  1  0.66740000  0.08893000  0.09196000  1
  C  C402  1  0.19370000  0.29482000  0.08927000  1
  C  C403  1  0.69370000  0.20518000  0.08927000  1
  C  C404  1  0.50030000  0.78420000  0.08660000  1
  C  C405  1  0.00030000  0.71580000  0.08660000  1
  C  C406  1  0.26140000  0.77812000  0.07738000  1
  C  C407  1  0.76140000  0.72188000  0.07738000  1
  C  C408  1  0.26790000  0.84631000  0.07568000  1
  C  C409  1  0.76790000  0.65369000  0.07568000  1
  C  C410  1  0.27886000  0.99180000  0.07402000  1
  C  C411  1  0.77886000  0.50820000  0.07402000  1
  C  C412  1  0.77327000  0.43917000  0.07191000  1
  C  C413  1  0.27327000  0.06083000  0.07191000  1
  C  C414  1  0.56160000  0.86156000  0.04291000  1
  C  C415  1  0.06160000  0.63844000  0.04291000  1
  C  C416  1  0.10020000  0.40223000  0.04190000  1
  C  C417  1  0.60020000  0.09777000  0.04190000  1
  C  C418  1  0.12600000  0.28561000  0.04018000  1
  C  C419  1  0.62600000  0.21439000  0.04018000  1
  C  C420  1  0.07840000  0.34032000  0.01646000  1
  C  C421  1  0.57840000  0.15968000  0.01646000  1
  C  C422  1  0.77090000  0.40079000  0.00725000  1
  C  C423  1  0.27090000  0.09921000  0.00725000  1
  N  N424  1  0.00887000  0.33067000  0.96409000  1
  N  N425  1  0.50887000  0.16933000  0.96409000  1
  N  N426  1  0.88584000  0.33973000  0.90468000  1
  N  N427  1  0.38584000  0.16027000  0.90468000  1
  N  N428  1  0.73927000  0.25736000  0.86852000  1
  N  N429  1  0.23927000  0.24264000  0.86852000  1
  N  N430  1  0.63710000  0.37933000  0.85064000  1
  N  N431  1  0.13710000  0.12067000  0.85064000  1
  N  N432  1  0.51198000  0.38109000  0.79545000  1
  N  N433  1  0.01198000  0.11891000  0.79545000  1
  N  N434  1  0.99850000  0.87677000  0.67939000  1
  N  N435  1  0.49850000  0.62323000  0.67939000  1
  N  N436  1  0.87017000  0.87813000  0.63143000  1
  N  N437  1  0.37017000  0.62187000  0.63143000  1
  N  N438  1  0.75268000  0.76582000  0.62229000  1
  N  N439  1  0.25268000  0.73418000  0.62229000  1
  N  N440  1  0.61916000  0.86518000  0.60124000  1
  N  N441  1  0.11916000  0.63482000  0.60124000  1
  N  N442  1  0.49110000  0.85754000  0.55407000  1
  N  N443  1  0.99110000  0.64246000  0.55407000  1
  N  N444  1  0.00890000  0.35754000  0.44593000  1
  N  N445  1  0.50890000  0.14246000  0.44593000  1
  N  N446  1  0.88084000  0.36518000  0.39876000  1
  N  N447  1  0.38084000  0.13482000  0.39876000  1
  N  N448  1  0.74732000  0.26582000  0.37771000  1
  N  N449  1  0.24732000  0.23418000  0.37771000  1
  N  N450  1  0.62983000  0.37813000  0.36857000  1
  N  N451  1  0.12983000  0.12187000  0.36857000  1
  N  N452  1  0.50150000  0.37677000  0.32061000  1
  N  N453  1  0.00150000  0.12323000  0.32061000  1
  N  N454  1  0.98802000  0.88109000  0.20455000  1
  N  N455  1  0.48802000  0.61891000  0.20455000  1
  N  N456  1  0.86290000  0.87933000  0.14936000  1
  N  N457  1  0.36290000  0.62067000  0.14936000  1
  N  N458  1  0.76073000  0.75736000  0.13148000  1
  N  N459  1  0.26073000  0.74264000  0.13148000  1
  N  N460  1  0.61416000  0.83973000  0.09532000  1
  N  N461  1  0.11416000  0.66027000  0.09532000  1
  N  N462  1  0.49113000  0.83067000  0.03591000  1
  N  N463  1  0.99113000  0.66933000  0.03591000  1
  O  O464  1  0.73770000  0.84041000  0.99203000  1
  O  O465  1  0.23770000  0.65959000  0.99203000  1
  O  O466  1  0.77658000  0.43171000  0.95551000  1
  O  O467  1  0.27658000  0.06829000  0.95551000  1
  O  O468  1  0.78271000  0.44726000  0.81366000  1
  O  O469  1  0.28271000  0.05274000  0.81366000  1
  O  O470  1  0.77340000  0.84115000  0.76140000  1
  O  O471  1  0.27340000  0.65885000  0.76140000  1
  O  O472  1  0.76423000  0.35365000  0.76035000  1
  O  O473  1  0.26423000  0.14635000  0.76035000  1
  O  O474  1  0.74363000  0.93013000  0.69768000  1
  O  O475  1  0.24363000  0.56987000  0.69768000  1
  O  O476  1  0.73581000  0.94237000  0.54165000  1
  O  O477  1  0.23581000  0.55763000  0.54165000  1
  O  O478  1  0.77190000  0.34876000  0.51187000  1
  O  O479  1  0.27190000  0.15124000  0.51187000  1
  O  O480  1  0.72810000  0.84876000  0.48813000  1
  O  O481  1  0.22810000  0.65124000  0.48813000  1
  O  O482  1  0.76419000  0.44237000  0.45835000  1
  O  O483  1  0.26419000  0.05763000  0.45835000  1
  O  O484  1  0.75637000  0.43013000  0.30232000  1
  O  O485  1  0.25637000  0.06987000  0.30232000  1
  O  O486  1  0.73577000  0.85365000  0.23965000  1
  O  O487  1  0.23577000  0.64635000  0.23965000  1
  O  O488  1  0.72660000  0.34115000  0.23860000  1
  O  O489  1  0.22660000  0.15885000  0.23860000  1
  O  O490  1  0.71729000  0.94726000  0.18634000  1
  O  O491  1  0.21729000  0.55274000  0.18634000  1
  O  O492  1  0.72342000  0.93171000  0.04449000  1
  O  O493  1  0.22342000  0.56829000  0.04449000  1
  O  O494  1  0.76230000  0.34041000  0.00797000  1
  O  O495  1  0.26230000  0.15959000  0.00797000  1
