# generated using pymatgen
data_CuH8C14N2O5
_symmetry_space_group_name_H-M   'P 1'
_cell_length_a   8.40480000
_cell_length_b   10.23790000
_cell_length_c   17.66710000
_cell_angle_alpha   90.00000000
_cell_angle_beta   103.03200000
_cell_angle_gamma   90.00000000
_symmetry_Int_Tables_number   1
_chemical_formula_structural   CuH8C14N2O5
_chemical_formula_sum   'Cu4 H32 C56 N8 O20'
_cell_volume   1481.05571729
_cell_formula_units_Z   4
loop_
 _symmetry_equiv_pos_site_id
 _symmetry_equiv_pos_as_xyz
  1  'x, y, z'
loop_
 _atom_site_type_symbol
 _atom_site_label
 _atom_site_symmetry_multiplicity
 _atom_site_fract_x
 _atom_site_fract_y
 _atom_site_fract_z
 _atom_site_occupancy
  Cu  Cu0  1  0.17371000  0.44226000  0.56796000  1
  Cu  Cu1  1  0.32629000  0.94226000  0.93204000  1
  Cu  Cu2  1  0.67371000  0.05774000  0.06796000  1
  Cu  Cu3  1  0.82629000  0.55774000  0.43204000  1
  H  H4  1  0.03690000  0.72970000  0.66960000  1
  H  H5  1  0.06340000  0.10900000  0.84180000  1
  H  H6  1  0.06930000  0.22580000  0.09210000  1
  H  H7  1  0.10580000  0.72890000  0.13630000  1
  H  H8  1  0.13510000  0.66190000  0.90390000  1
  H  H9  1  0.14560000  0.91080000  0.48480000  1
  H  H10  1  0.18580000  0.55120000  0.80020000  1
  H  H11  1  0.23550000  0.06440000  0.06450000  1
  H  H12  1  0.26450000  0.56440000  0.43550000  1
  H  H13  1  0.31420000  0.05120000  0.69980000  1
  H  H14  1  0.35440000  0.41080000  0.01520000  1
  H  H15  1  0.36490000  0.16190000  0.59610000  1
  H  H16  1  0.39420000  0.22890000  0.36370000  1
  H  H17  1  0.43070000  0.72580000  0.40790000  1
  H  H18  1  0.43660000  0.60900000  0.65820000  1
  H  H19  1  0.46310000  0.22970000  0.83040000  1
  H  H20  1  0.53690000  0.77030000  0.16960000  1
  H  H21  1  0.56340000  0.39100000  0.34180000  1
  H  H22  1  0.56930000  0.27420000  0.59210000  1
  H  H23  1  0.60580000  0.77110000  0.63630000  1
  H  H24  1  0.63510000  0.83810000  0.40390000  1
  H  H25  1  0.64560000  0.58920000  0.98480000  1
  H  H26  1  0.68580000  0.94880000  0.30020000  1
  H  H27  1  0.73550000  0.43560000  0.56450000  1
  H  H28  1  0.76450000  0.93560000  0.93550000  1
  H  H29  1  0.81420000  0.44880000  0.19980000  1
  H  H30  1  0.85440000  0.08920000  0.51520000  1
  H  H31  1  0.86490000  0.33810000  0.09610000  1
  H  H32  1  0.89420000  0.27110000  0.86370000  1
  H  H33  1  0.93070000  0.77420000  0.90790000  1
  H  H34  1  0.93660000  0.89100000  0.15820000  1
  H  H35  1  0.96310000  0.27030000  0.33040000  1
  C  C36  1  0.01380000  0.29290000  0.48340000  1
  C  C37  1  0.03580000  0.73170000  0.01890000  1
  C  C38  1  0.03630000  0.76970000  0.09460000  1
  C  C39  1  0.06500000  0.13350000  0.89260000  1
  C  C40  1  0.06680000  0.20410000  0.04070000  1
  C  C41  1  0.07700000  0.80590000  0.56970000  1
  C  C42  1  0.08870000  0.79720000  0.64930000  1
  C  C43  1  0.14080000  0.61710000  0.00880000  1
  C  C44  1  0.15440000  0.90560000  0.53810000  1
  C  C45  1  0.16600000  0.10740000  0.02370000  1
  C  C46  1  0.17750000  0.88920000  0.69760000  1
  C  C47  1  0.19470000  0.88090000  0.78390000  1
  C  C48  1  0.24520000  0.48890000  0.83330000  1
  C  C49  1  0.24550000  0.99730000  0.58820000  1
  C  C50  1  0.25450000  0.49730000  0.91180000  1
  C  C51  1  0.25480000  0.98890000  0.66666667  1
  C  C52  1  0.30530000  0.38090000  0.71610000  1
  C  C53  1  0.32250000  0.38920000  0.80240000  1
  C  C54  1  0.33400000  0.60740000  0.47630000  1
  C  C55  1  0.34560000  0.40560000  0.96190000  1
  C  C56  1  0.35920000  0.11710000  0.49120000  1
  C  C57  1  0.41130000  0.29720000  0.85070000  1
  C  C58  1  0.42300000  0.30590000  0.93030000  1
  C  C59  1  0.43320000  0.70410000  0.45930000  1
  C  C60  1  0.43500000  0.63350000  0.60740000  1
  C  C61  1  0.46370000  0.26970000  0.40540000  1
  C  C62  1  0.46420000  0.23170000  0.48110000  1
  C  C63  1  0.48620000  0.79290000  0.01660000  1
  C  C64  1  0.51380000  0.20710000  0.98340000  1
  C  C65  1  0.53580000  0.76830000  0.51890000  1
  C  C66  1  0.53630000  0.73030000  0.59460000  1
  C  C67  1  0.56500000  0.36650000  0.39260000  1
  C  C68  1  0.56680000  0.29590000  0.54070000  1
  C  C69  1  0.57700000  0.69410000  0.06970000  1
  C  C70  1  0.58870000  0.70280000  0.14930000  1
  C  C71  1  0.64080000  0.88290000  0.50880000  1
  C  C72  1  0.65440000  0.59440000  0.03810000  1
  C  C73  1  0.66600000  0.39260000  0.52370000  1
  C  C74  1  0.67750000  0.61080000  0.19760000  1
  C  C75  1  0.69470000  0.61910000  0.28390000  1
  C  C76  1  0.74520000  0.01110000  0.33333333  1
  C  C77  1  0.74550000  0.50270000  0.08820000  1
  C  C78  1  0.75450000  0.00270000  0.41180000  1
  C  C79  1  0.75480000  0.51110000  0.16670000  1
  C  C80  1  0.80530000  0.11910000  0.21610000  1
  C  C81  1  0.82250000  0.11080000  0.30240000  1
  C  C82  1  0.83400000  0.89260000  0.97630000  1
  C  C83  1  0.84560000  0.09440000  0.46190000  1
  C  C84  1  0.85920000  0.38290000  0.99120000  1
  C  C85  1  0.91130000  0.20280000  0.35070000  1
  C  C86  1  0.92300000  0.19410000  0.43030000  1
  C  C87  1  0.93320000  0.79590000  0.95930000  1
  C  C88  1  0.93500000  0.86650000  0.10740000  1
  C  C89  1  0.96370000  0.23030000  0.90540000  1
  C  C90  1  0.96420000  0.26830000  0.98110000  1
  C  C91  1  0.98620000  0.70710000  0.51660000  1
  N  N92  1  0.16710000  0.07220000  0.95100000  1
  N  N93  1  0.17080000  0.60160000  0.93730000  1
  N  N94  1  0.32920000  0.10160000  0.56270000  1
  N  N95  1  0.33290000  0.57220000  0.54900000  1
  N  N96  1  0.66710000  0.42780000  0.45100000  1
  N  N97  1  0.67080000  0.89840000  0.43730000  1
  N  N98  1  0.82920000  0.39840000  0.06270000  1
  N  N99  1  0.83290000  0.92780000  0.04900000  1
  O  O100  1  0.03032000  0.28400000  0.55582000  1
  O  O101  1  0.07908000  0.39060000  0.45828000  1
  O  O102  1  0.11890000  0.79930000  0.81250000  1
  O  O103  1  0.18965000  0.54270000  0.06255000  1
  O  O104  1  0.20688000  0.46380000  0.67638000  1
  O  O105  1  0.29312000  0.96380000  0.82362000  1
  O  O106  1  0.31035000  0.04270000  0.43745000  1
  O  O107  1  0.38110000  0.29930000  0.68750000  1
  O  O108  1  0.42092000  0.89060000  0.04172000  1
  O  O109  1  0.46968000  0.78400000  0.94418000  1
  O  O110  1  0.53032000  0.21600000  0.05582000  1
  O  O111  1  0.57908000  0.10940000  0.95828000  1
  O  O112  1  0.61890000  0.70070000  0.31250000  1
  O  O113  1  0.68965000  0.95730000  0.56255000  1
  O  O114  1  0.70688000  0.03620000  0.17638000  1
  O  O115  1  0.79312000  0.53620000  0.32362000  1
  O  O116  1  0.81035000  0.45730000  0.93745000  1
  O  O117  1  0.88110000  0.20070000  0.18750000  1
  O  O118  1  0.92092000  0.60940000  0.54172000  1
  O  O119  1  0.96968000  0.71600000  0.44418000  1
