# generated using pymatgen
data_ZnH4(CN5)2
_symmetry_space_group_name_H-M   'P 1'
_cell_length_a   8.77960000
_cell_length_b   10.02970000
_cell_length_c   10.15642663
_cell_angle_alpha   119.59024520
_cell_angle_beta   115.61104481
_cell_angle_gamma   89.99550000
_symmetry_Int_Tables_number   1
_chemical_formula_structural   ZnH4(CN5)2
_chemical_formula_sum   'Zn2 H8 C4 N20'
_cell_volume   674.82995271
_cell_formula_units_Z   2
loop_
 _symmetry_equiv_pos_site_id
 _symmetry_equiv_pos_as_xyz
  1  'x, y, z'
loop_
 _atom_site_type_symbol
 _atom_site_label
 _atom_site_symmetry_multiplicity
 _atom_site_fract_x
 _atom_site_fract_y
 _atom_site_fract_z
 _atom_site_occupancy
  Zn  Zn0  1  0.52039000  0.88772000  0.72458000  1
  Zn  Zn1  1  0.29581000  0.16314000  0.27542000  1
  H  H2  1  0.87540000  0.18390000  0.87800000  1
  H  H3  1  0.65100000  0.60660000  0.75400000  1
  H  H4  1  0.62470000  0.42790000  0.65920000  1
  H  H5  1  0.49740000  0.30590000  0.12200000  1
  H  H6  1  0.46550000  0.76870000  0.34080000  1
  H  H7  1  0.45630000  0.21940000  0.94380000  1
  H  H8  1  0.39700000  0.85260000  0.24600000  1
  H  H9  1  0.01250000  0.27560000  0.05620000  1
  C  C10  1  0.90780000  0.07930000  0.00380000  1
  C  C11  1  0.47040000  0.52490000  0.54400000  1
  C  C12  1  0.42640000  0.98090000  0.45600000  1
  C  C13  1  0.40400000  0.07550000  0.99620000  1
  N  N14  1  0.97080000  0.93080000  0.10640000  1
  N  N15  1  0.91960000  0.19980000  0.98220000  1
  N  N16  1  0.81720000  0.86240000  0.97440000  1
  N  N17  1  0.77160000  0.95280000  0.90500000  1
  N  N18  1  0.60250000  0.52210000  0.67260000  1
  N  N19  1  0.46750000  0.00750000  0.61060000  1
  N  N20  1  0.45620000  0.15900000  0.70560000  1
  N  N21  1  0.43740000  0.21760000  0.01780000  1
  N  N22  1  0.43600000  0.65700000  0.54720000  1
  N  N23  1  0.42990000  0.84950000  0.32740000  1
  N  N24  1  0.40930000  0.21720000  0.61280000  1
  N  N25  1  0.40460000  0.94010000  0.86880000  1
  N  N26  1  0.38880000  0.10980000  0.45280000  1
  N  N27  1  0.36660000  0.04780000  0.09500000  1
  N  N28  1  0.36440000  0.82440000  0.89360000  1
  N  N29  1  0.35690000  0.39690000  0.38940000  1
  N  N30  1  0.34280000  0.88800000  0.02560000  1
  N  N31  1  0.29650000  0.60440000  0.38720000  1
  N  N32  1  0.25060000  0.45340000  0.29440000  1
  N  N33  1  0.03580000  0.07130000  0.13120000  1
