# generated using pymatgen
data_KNaMn3H21(C11O7)3
_symmetry_space_group_name_H-M   'P 1'
_cell_length_a   10.39280000
_cell_length_b   20.44890000
_cell_length_c   20.44890000
_cell_angle_alpha   120.00000000
_cell_angle_beta   90.00000000
_cell_angle_gamma   90.00000000
_symmetry_Int_Tables_number   1
_chemical_formula_structural   KNaMn3H21(C11O7)3
_chemical_formula_sum   'K2 Na2 Mn6 H42 C66 O42'
_cell_volume   3763.59691371
_cell_formula_units_Z   2
loop_
 _symmetry_equiv_pos_site_id
 _symmetry_equiv_pos_as_xyz
  1  'x, y, z'
loop_
 _atom_site_type_symbol
 _atom_site_label
 _atom_site_symmetry_multiplicity
 _atom_site_fract_x
 _atom_site_fract_y
 _atom_site_fract_z
 _atom_site_occupancy
  K  K0  1  0.23357000  0.66666667  0.33333333  1
  K  K1  1  0.73357000  0.33333333  0.66666667  1
  Na  Na2  1  0.82248000  0.66666667  0.33333333  1
  Na  Na3  1  0.32248000  0.33333333  0.66666667  1
  Mn  Mn4  1  0.00900000  0.83485000  0.38050000  1
  Mn  Mn5  1  0.00900000  0.61951000  0.45436000  1
  Mn  Mn6  1  0.00900000  0.54565000  0.16516000  1
  Mn  Mn7  1  0.50900000  0.45435000  0.83484000  1
  Mn  Mn8  1  0.50900000  0.38049000  0.54564000  1
  Mn  Mn9  1  0.50900000  0.16515000  0.61950000  1
  H  H10  1  0.70120000  0.99490000  0.44130000  1
  H  H11  1  0.81790000  0.98230000  0.56160000  1
  H  H12  1  0.98600000  0.94060000  0.65600000  1
  H  H13  1  0.08320000  0.87390000  0.63260000  1
  H  H14  1  0.88480000  0.87290000  0.54880000  1
  H  H15  1  0.93670000  0.86210000  0.64160000  1
  H  H16  1  0.47440000  0.81190000  0.36040000  1
  H  H17  1  0.93670000  0.77950000  0.13790000  1
  H  H18  1  0.08320000  0.75870000  0.12610000  1
  H  H19  1  0.98600000  0.71540000  0.05940000  1
  H  H20  1  0.88480000  0.67590000  0.12710000  1
  H  H21  1  0.48600000  0.65600000  0.71540000  1
  H  H22  1  0.43670000  0.64160000  0.77950000  1
  H  H23  1  0.47440000  0.63960000  0.45150000  1
  H  H24  1  0.58320000  0.63260000  0.75870000  1
  H  H25  1  0.81790000  0.57930000  0.01770000  1
  H  H26  1  0.31790000  0.56160000  0.57930000  1
  H  H27  1  0.70120000  0.55870000  0.55360000  1
  H  H28  1  0.20120000  0.55360000  0.99490000  1
  H  H29  1  0.38480000  0.54880000  0.67590000  1
  H  H30  1  0.47440000  0.54850000  0.18810000  1
  H  H31  1  0.97440000  0.45150000  0.81190000  1
  H  H32  1  0.88480000  0.45120000  0.32410000  1
  H  H33  1  0.70120000  0.44640000  0.00510000  1
  H  H34  1  0.20120000  0.44130000  0.44640000  1
  H  H35  1  0.81790000  0.43840000  0.42070000  1
  H  H36  1  0.31790000  0.42070000  0.98230000  1
  H  H37  1  0.08320000  0.36740000  0.24130000  1
  H  H38  1  0.97440000  0.36040000  0.54850000  1
  H  H39  1  0.93670000  0.35840000  0.22050000  1
  H  H40  1  0.98600000  0.34400000  0.28460000  1
  H  H41  1  0.38480000  0.32410000  0.87290000  1
  H  H42  1  0.48600000  0.28460000  0.94060000  1
  H  H43  1  0.58320000  0.24130000  0.87390000  1
  H  H44  1  0.43670000  0.22050000  0.86210000  1
  H  H45  1  0.97440000  0.18810000  0.63960000  1
  H  H46  1  0.43670000  0.13790000  0.35840000  1
  H  H47  1  0.38480000  0.12710000  0.45120000  1
  H  H48  1  0.58320000  0.12610000  0.36740000  1
  H  H49  1  0.48600000  0.05940000  0.34400000  1
  H  H50  1  0.31790000  0.01770000  0.43840000  1
  H  H51  1  0.20120000  0.00510000  0.55870000  1
  C  C52  1  0.38980000  0.98709000  0.42867000  1
  C  C53  1  0.01190000  0.98188000  0.55401000  1
  C  C54  1  0.61970000  0.97319000  0.43058000  1
  C  C55  1  0.37620000  0.90887000  0.39629000  1
  C  C56  1  0.60610000  0.89457000  0.39870000  1
  C  C57  1  0.99740000  0.88700000  0.62600000  1
  C  C58  1  0.24350000  0.87623000  0.38234000  1
  C  C59  1  0.97730000  0.86399000  0.54985000  1
  C  C60  1  0.48430000  0.86380000  0.38186000  1
  C  C61  1  0.72430000  0.84641000  0.38430000  1
  C  C62  1  0.98840000  0.78042000  0.49281000  1
  C  C63  1  0.99740000  0.73900000  0.11300000  1
  C  C64  1  0.98840000  0.71239000  0.21958000  1
  C  C65  1  0.97730000  0.68586000  0.13601000  1
  C  C66  1  0.49740000  0.62600000  0.73900000  1
  C  C67  1  0.48430000  0.61814000  0.48194000  1
  C  C68  1  0.24350000  0.61766000  0.49389000  1
  C  C69  1  0.72430000  0.61570000  0.46211000  1
  C  C70  1  0.37620000  0.60371000  0.51258000  1
  C  C71  1  0.60610000  0.60130000  0.49587000  1
  C  C72  1  0.01190000  0.57213000  0.01812000  1
  C  C73  1  0.38980000  0.57133000  0.55842000  1
  C  C74  1  0.61970000  0.56942000  0.54261000  1
  C  C75  1  0.88980000  0.55842000  0.98709000  1
  C  C76  1  0.51190000  0.55401000  0.57213000  1
  C  C77  1  0.47730000  0.54985000  0.68586000  1
  C  C78  1  0.11970000  0.54261000  0.97319000  1
  C  C79  1  0.72430000  0.53789000  0.15359000  1
  C  C80  1  0.48430000  0.51806000  0.13620000  1
  C  C81  1  0.87620000  0.51258000  0.90887000  1
  C  C82  1  0.98840000  0.50719000  0.28761000  1
  C  C83  1  0.24350000  0.50611000  0.12377000  1
  C  C84  1  0.60610000  0.50413000  0.10543000  1
  C  C85  1  0.10610000  0.49587000  0.89457000  1
  C  C86  1  0.74350000  0.49389000  0.87623000  1
  C  C87  1  0.48840000  0.49281000  0.71239000  1
  C  C88  1  0.37620000  0.48742000  0.09113000  1
  C  C89  1  0.98430000  0.48194000  0.86380000  1
  C  C90  1  0.22430000  0.46211000  0.84641000  1
  C  C91  1  0.61970000  0.45739000  0.02681000  1
  C  C92  1  0.97730000  0.45015000  0.31414000  1
  C  C93  1  0.01190000  0.44599000  0.42787000  1
  C  C94  1  0.38980000  0.44158000  0.01291000  1
  C  C95  1  0.11970000  0.43058000  0.45739000  1
  C  C96  1  0.88980000  0.42867000  0.44158000  1
  C  C97  1  0.51190000  0.42787000  0.98188000  1
  C  C98  1  0.10610000  0.39870000  0.50413000  1
  C  C99  1  0.87620000  0.39629000  0.48742000  1
  C  C100  1  0.22430000  0.38430000  0.53789000  1
  C  C101  1  0.74350000  0.38234000  0.50611000  1
  C  C102  1  0.98430000  0.38186000  0.51806000  1
  C  C103  1  0.99740000  0.37400000  0.26100000  1
  C  C104  1  0.47730000  0.31414000  0.86399000  1
  C  C105  1  0.48840000  0.28761000  0.78042000  1
  C  C106  1  0.49740000  0.26100000  0.88700000  1
  C  C107  1  0.48840000  0.21958000  0.50719000  1
  C  C108  1  0.22430000  0.15359000  0.61570000  1
  C  C109  1  0.98430000  0.13620000  0.61814000  1
  C  C110  1  0.47730000  0.13601000  0.45015000  1
  C  C111  1  0.74350000  0.12377000  0.61766000  1
  C  C112  1  0.49740000  0.11300000  0.37400000  1
  C  C113  1  0.10610000  0.10543000  0.60130000  1
  C  C114  1  0.87620000  0.09113000  0.60371000  1
  C  C115  1  0.11970000  0.02681000  0.56942000  1
  C  C116  1  0.51190000  0.01812000  0.44599000  1
  C  C117  1  0.88980000  0.01291000  0.57133000  1
  O  O118  1  0.14832000  0.91772000  0.38964000  1
  O  O119  1  0.03017000  0.90422000  0.51577000  1
  O  O120  1  0.82943000  0.88334000  0.40137000  1
  O  O121  1  0.22838000  0.80845000  0.36590000  1
  O  O122  1  0.98240000  0.78224000  0.26258000  1
  O  O123  1  0.71250000  0.77835000  0.35877000  1
  O  O124  1  0.99734000  0.75874000  0.42414000  1
  O  O125  1  0.98240000  0.73742000  0.51966000  1
  O  O126  1  0.99734000  0.66540000  0.24126000  1
  O  O127  1  0.71250000  0.64123000  0.41958000  1
  O  O128  1  0.22838000  0.63410000  0.44255000  1
  O  O129  1  0.03017000  0.61155000  0.09578000  1
  O  O130  1  0.14832000  0.61036000  0.52808000  1
  O  O131  1  0.82943000  0.59863000  0.48197000  1
  O  O132  1  0.71250000  0.58042000  0.22165000  1
  O  O133  1  0.99734000  0.57586000  0.33460000  1
  O  O134  1  0.22838000  0.55745000  0.19155000  1
  O  O135  1  0.64832000  0.52808000  0.91772000  1
  O  O136  1  0.48240000  0.51966000  0.78224000  1
  O  O137  1  0.82943000  0.51803000  0.11666000  1
  O  O138  1  0.53017000  0.51577000  0.61155000  1
  O  O139  1  0.03017000  0.48423000  0.38845000  1
  O  O140  1  0.32943000  0.48197000  0.88334000  1
  O  O141  1  0.98240000  0.48034000  0.21776000  1
  O  O142  1  0.14832000  0.47192000  0.08228000  1
  O  O143  1  0.72838000  0.44255000  0.80845000  1
  O  O144  1  0.49734000  0.42414000  0.66540000  1
  O  O145  1  0.21250000  0.41958000  0.77835000  1
  O  O146  1  0.32943000  0.40137000  0.51803000  1
  O  O147  1  0.64832000  0.38964000  0.47192000  1
  O  O148  1  0.53017000  0.38845000  0.90422000  1
  O  O149  1  0.72838000  0.36590000  0.55745000  1
  O  O150  1  0.21250000  0.35877000  0.58042000  1
  O  O151  1  0.49734000  0.33460000  0.75874000  1
  O  O152  1  0.48240000  0.26258000  0.48034000  1
  O  O153  1  0.49734000  0.24126000  0.57586000  1
  O  O154  1  0.21250000  0.22165000  0.64123000  1
  O  O155  1  0.48240000  0.21776000  0.73742000  1
  O  O156  1  0.72838000  0.19155000  0.63410000  1
  O  O157  1  0.32943000  0.11666000  0.59863000  1
  O  O158  1  0.53017000  0.09578000  0.48423000  1
  O  O159  1  0.64832000  0.08228000  0.61036000  1
