# generated using pymatgen
data_MgH3(CO2)3
_symmetry_space_group_name_H-M   'P 1'
_cell_length_a   7.42950000
_cell_length_b   7.88880000
_cell_length_c   13.77990000
_cell_angle_alpha   90.00000000
_cell_angle_beta   90.00000000
_cell_angle_gamma   90.00000000
_symmetry_Int_Tables_number   1
_chemical_formula_structural   MgH3(CO2)3
_chemical_formula_sum   'Mg4 H12 C12 O24'
_cell_volume   807.63772870
_cell_formula_units_Z   4
loop_
 _symmetry_equiv_pos_site_id
 _symmetry_equiv_pos_as_xyz
  1  'x, y, z'
loop_
 _atom_site_type_symbol
 _atom_site_label
 _atom_site_symmetry_multiplicity
 _atom_site_fract_x
 _atom_site_fract_y
 _atom_site_fract_z
 _atom_site_occupancy
  Mg  Mg0  1  0.25858000  0.22587000  0.16461000  1
  Mg  Mg1  1  0.75858000  0.27413000  0.83539000  1
  Mg  Mg2  1  0.74142000  0.72587000  0.33539000  1
  Mg  Mg3  1  0.24142000  0.77413000  0.66461000  1
  H  H4  1  0.49820000  0.00360000  0.27510000  1
  H  H5  1  0.52630000  0.05280000  0.70460000  1
  H  H6  1  0.47840000  0.19420000  0.98570000  1
  H  H7  1  0.97840000  0.30580000  0.01430000  1
  H  H8  1  0.02630000  0.44720000  0.29540000  1
  H  H9  1  0.99820000  0.49640000  0.72490000  1
  H  H10  1  0.50180000  0.50360000  0.22490000  1
  H  H11  1  0.47370000  0.55280000  0.79540000  1
  H  H12  1  0.52160000  0.69420000  0.51430000  1
  H  H13  1  0.02160000  0.80580000  0.48570000  1
  H  H14  1  0.97370000  0.94720000  0.20460000  1
  H  H15  1  0.00180000  0.99640000  0.77510000  1
  C  C16  1  0.50420000  0.00690000  0.76561000  1
  C  C17  1  0.99510000  0.05300000  0.71602000  1
  C  C18  1  0.00300000  0.19360000  0.99842000  1
  C  C19  1  0.50300000  0.30640000  0.00158000  1
  C  C20  1  0.49510000  0.44700000  0.28398000  1
  C  C21  1  0.00420000  0.49310000  0.23439000  1
  C  C22  1  0.49580000  0.50690000  0.73439000  1
  C  C23  1  0.00490000  0.55300000  0.78398000  1
  C  C24  1  0.99700000  0.69360000  0.50158000  1
  C  C25  1  0.49700000  0.80640000  0.49842000  1
  C  C26  1  0.50490000  0.94700000  0.21602000  1
  C  C27  1  0.99580000  0.99310000  0.26561000  1
  O  O28  1  0.42049000  0.01044000  0.14855000  1
  O  O29  1  0.59051000  0.06702000  0.83405000  1
  O  O30  1  0.10834000  0.10763000  0.26988000  1
  O  O31  1  0.11786000  0.12016000  0.04889000  1
  O  O32  1  0.91832000  0.13351000  0.92960000  1
  O  O33  1  0.90169000  0.18404000  0.71480000  1
  O  O34  1  0.40169000  0.31596000  0.28520000  1
  O  O35  1  0.41832000  0.36649000  0.07040000  1
  O  O36  1  0.61786000  0.37984000  0.95111000  1
  O  O37  1  0.60834000  0.39237000  0.73012000  1
  O  O38  1  0.09051000  0.43298000  0.16595000  1
  O  O39  1  0.92049000  0.48956000  0.85145000  1
  O  O40  1  0.57951000  0.51044000  0.35145000  1
  O  O41  1  0.40949000  0.56702000  0.66595000  1
  O  O42  1  0.89166000  0.60763000  0.23012000  1
  O  O43  1  0.88214000  0.62016000  0.45111000  1
  O  O44  1  0.08168000  0.63351000  0.57040000  1
  O  O45  1  0.09831000  0.68404000  0.78520000  1
  O  O46  1  0.59831000  0.81596000  0.21480000  1
  O  O47  1  0.58168000  0.86649000  0.42960000  1
  O  O48  1  0.38214000  0.87984000  0.54889000  1
  O  O49  1  0.39166000  0.89237000  0.76988000  1
  O  O50  1  0.90949000  0.93298000  0.33405000  1
  O  O51  1  0.07951000  0.98956000  0.64855000  1
