# generated using pymatgen
data_TbH14C20N5O7
_symmetry_space_group_name_H-M   'P 1'
_cell_length_a   9.89500000
_cell_length_b   11.98389908
_cell_length_c   11.98389908
_cell_angle_alpha   66.79535401
_cell_angle_beta   70.84569383
_cell_angle_gamma   70.84569383
_symmetry_Int_Tables_number   1
_chemical_formula_structural   TbH14C20N5O7
_chemical_formula_sum   'Tb2 H28 C40 N10 O14'
_cell_volume   1201.00297074
_cell_formula_units_Z   2
loop_
 _symmetry_equiv_pos_site_id
 _symmetry_equiv_pos_as_xyz
  1  'x, y, z'
loop_
 _atom_site_type_symbol
 _atom_site_label
 _atom_site_symmetry_multiplicity
 _atom_site_fract_x
 _atom_site_fract_y
 _atom_site_fract_z
 _atom_site_occupancy
  C  C0  1  0.82590000  0.18010000  0.61610000  1
  C  C1  1  0.32590000  0.61610000  0.18010000  1
  C  C2  1  0.56960000  0.93810000  0.83230000  1
  C  C3  1  0.06960000  0.83230000  0.93810000  1
  C  C4  1  0.06470000  0.15150000  0.54090000  1
  C  C5  1  0.56470000  0.54090000  0.15150000  1
  C  C6  1  0.93370000  0.18230000  0.50790000  1
  C  C7  1  0.43370000  0.50790000  0.18230000  1
  C  C8  1  0.32230000  0.17360000  0.49100000  1
  C  C9  1  0.82230000  0.49100000  0.17360000  1
  C  C10  1  0.60850000  0.89830000  0.71810000  1
  C  C11  1  0.10850000  0.71810000  0.89830000  1
  C  C12  1  0.21680000  0.14280000  0.46440000  1
  C  C13  1  0.71680000  0.46440000  0.14280000  1
  C  C14  1  0.46190000  0.16750000  0.41530000  1
  C  C15  1  0.96190000  0.41530000  0.16750000  1
  C  C16  1  0.50280000  0.86650000  0.69150000  1
  C  C17  1  0.00280000  0.69150000  0.86650000  1
  C  C18  1  0.74730000  0.89570000  0.64090000  1
  C  C19  1  0.24730000  0.64090000  0.89570000  1
  C  C20  1  0.25270000  0.10430000  0.35910000  1
  C  C21  1  0.75270000  0.35910000  0.10430000  1
  C  C22  1  0.49720000  0.13350000  0.30850000  1
  C  C23  1  0.99720000  0.30850000  0.13350000  1
  C  C24  1  0.53810000  0.83250000  0.58470000  1
  C  C25  1  0.03810000  0.58470000  0.83250000  1
  C  C26  1  0.78320000  0.85720000  0.53560000  1
  C  C27  1  0.28320000  0.53560000  0.85720000  1
  C  C28  1  0.39150000  0.10170000  0.28190000  1
  C  C29  1  0.89150000  0.28190000  0.10170000  1
  C  C30  1  0.67770000  0.82640000  0.50900000  1
  C  C31  1  0.17770000  0.50900000  0.82640000  1
  C  C32  1  0.06630000  0.81770000  0.49210000  1
  C  C33  1  0.56630000  0.49210000  0.81770000  1
  C  C34  1  0.93530000  0.84850000  0.45910000  1
  C  C35  1  0.43530000  0.45910000  0.84850000  1
  C  C36  1  0.43040000  0.06190000  0.16770000  1
  C  C37  1  0.93040000  0.16770000  0.06190000  1
  C  C38  1  0.17410000  0.81990000  0.38390000  1
  C  C39  1  0.67410000  0.38390000  0.81990000  1
  H  H40  1  0.72570000  0.19880000  0.62040000  1
  H  H41  1  0.22570000  0.62040000  0.19880000  1
  H  H42  1  0.09430000  0.11050000  0.70770000  1
  H  H43  1  0.59430000  0.70770000  0.11050000  1
  H  H44  1  0.29930000  0.19860000  0.56060000  1
  H  H45  1  0.79930000  0.56060000  0.19860000  1
  H  H46  1  0.92020000  0.20090000  0.42870000  1
  H  H47  1  0.42020000  0.42870000  0.20090000  1
  H  H48  1  0.53320000  0.18620000  0.43560000  1
  H  H49  1  0.03320000  0.43560000  0.18620000  1
  H  H50  1  0.40950000  0.86790000  0.74410000  1
  H  H51  1  0.90950000  0.74410000  0.86790000  1
  H  H52  1  0.81690000  0.91930000  0.65830000  1
  H  H53  1  0.31690000  0.65830000  0.91930000  1
  H  H54  1  0.18310000  0.08070000  0.34170000  1
  H  H55  1  0.68310000  0.34170000  0.08070000  1
  H  H56  1  0.59050000  0.13210000  0.25590000  1
  H  H57  1  0.09050000  0.25590000  0.13210000  1
  H  H58  1  0.46680000  0.81380000  0.56440000  1
  H  H59  1  0.96680000  0.56440000  0.81380000  1
  H  H60  1  0.07980000  0.79910000  0.57130000  1
  H  H61  1  0.57980000  0.57130000  0.79910000  1
  H  H62  1  0.70070000  0.80140000  0.43940000  1
  H  H63  1  0.20070000  0.43940000  0.80140000  1
  H  H64  1  0.90570000  0.88950000  0.29230000  1
  H  H65  1  0.40570000  0.29230000  0.88950000  1
  H  H66  1  0.27430000  0.80120000  0.37960000  1
  H  H67  1  0.77430000  0.37960000  0.80120000  1
  N  N68  1  0.25000000  0.16700000  0.83300000  1
  N  N69  1  0.75000000  0.83300000  0.16700000  1
  N  N70  1  0.88380000  0.14780000  0.71400000  1
  N  N71  1  0.38380000  0.71400000  0.14780000  1
  N  N72  1  0.03020000  0.13150000  0.66470000  1
  N  N73  1  0.53020000  0.66470000  0.13150000  1
  N  N74  1  0.96980000  0.86850000  0.33530000  1
  N  N75  1  0.46980000  0.33530000  0.86850000  1
  N  N76  1  0.11620000  0.85220000  0.28600000  1
  N  N77  1  0.61620000  0.28600000  0.85220000  1
  O  O78  1  0.25000000  0.25820000  0.74180000  1
  O  O79  1  0.75000000  0.74180000  0.25820000  1
  O  O80  1  0.20420000  0.07501000  0.84361000  1
  O  O81  1  0.70420000  0.84361000  0.07501000  1
  O  O82  1  0.64710000  0.00164000  0.83344000  1
  O  O83  1  0.14710000  0.83344000  0.00164000  1
  O  O84  1  0.96430000  0.91762000  0.90422000  1
  O  O85  1  0.46430000  0.90422000  0.91762000  1
  O  O86  1  0.03570000  0.08238000  0.09578000  1
  O  O87  1  0.53570000  0.09578000  0.08238000  1
  O  O88  1  0.35290000  0.99836000  0.16656000  1
  O  O89  1  0.85290000  0.16656000  0.99836000  1
  O  O90  1  0.79580000  0.92499000  0.15639000  1
  O  O91  1  0.29580000  0.15639000  0.92499000  1
  Tb  Tb92  1  0.75000000  0.05871000  0.94129000  1
  Tb  Tb93  1  0.25000000  0.94129000  0.05871000  1
