# generated using pymatgen
data_Co3H24C30(NO6)2
_symmetry_space_group_name_H-M   'P 1'
_cell_length_a   9.43330000
_cell_length_b   16.54505393
_cell_length_c   17.79726627
_cell_angle_alpha   63.78025136
_cell_angle_beta   74.63179706
_cell_angle_gamma   73.43641986
_symmetry_Int_Tables_number   1
_chemical_formula_structural   Co3H24C30(NO6)2
_chemical_formula_sum   'Co6 H48 C60 N4 O24'
_cell_volume   2357.04247928
_cell_formula_units_Z   2
loop_
 _symmetry_equiv_pos_site_id
 _symmetry_equiv_pos_as_xyz
  1  'x, y, z'
loop_
 _atom_site_type_symbol
 _atom_site_label
 _atom_site_symmetry_multiplicity
 _atom_site_fract_x
 _atom_site_fract_y
 _atom_site_fract_z
 _atom_site_occupancy
  C  C0  1  0.75819000  0.80133000  0.15869000  1
  C  C1  1  0.28179000  0.30133000  0.65869000  1
  C  C2  1  0.97963000  0.72088000  0.22306000  1
  C  C3  1  0.07643000  0.22088000  0.72306000  1
  C  C4  1  0.75896000  0.65530000  0.27618000  1
  C  C5  1  0.30956000  0.15530000  0.77618000  1
  C  C6  1  0.64684000  0.84452000  0.89500000  1
  C  C7  1  0.61364000  0.34452000  0.39500000  1
  C  C8  1  0.68141000  0.41048000  0.32470000  1
  C  C9  1  0.58341000  0.91048000  0.82470000  1
  C  C10  1  0.76361000  0.68163000  0.98015000  1
  C  C11  1  0.57461000  0.18163000  0.48015000  1
  C  C12  1  0.68876000  0.75310000  0.90618000  1
  C  C13  1  0.65196000  0.25310000  0.40618000  1
  C  C14  1  0.78870000  0.38539000  0.26421000  1
  C  C15  1  0.56170000  0.88539000  0.76421000  1
  C  C16  1  0.86242000  0.45576000  0.18660000  1
  C  C17  1  0.49522000  0.95576000  0.68660000  1
  C  C18  1  0.16877000  0.06644000  0.56662000  1
  C  C19  1  0.19817000  0.56644000  0.06662000  1
  C  C20  1  0.96028000  0.99080000  0.58404000  1
  C  C21  1  0.46488000  0.49080000  0.08404000  1
  C  C22  1  0.75707000  0.22850000  0.34516000  1
  C  C23  1  0.66927000  0.72850000  0.84516000  1
  C  C24  1  0.82489000  0.29400000  0.27482000  1
  C  C25  1  0.60629000  0.79400000  0.77482000  1
  C  C26  1  0.08096000  0.03180000  0.53248000  1
  C  C27  1  0.35476000  0.53180000  0.03248000  1
  C  C28  1  0.87952000  0.95856000  0.55160000  1
  C  C29  1  0.61032000  0.45856000  0.05160000  1
  C  C30  1  0.12048000  0.04144000  0.44840000  1
  C  C31  1  0.38968000  0.54144000  0.94840000  1
  C  C32  1  0.91904000  0.96820000  0.46752000  1
  C  C33  1  0.64524000  0.46820000  0.96752000  1
  C  C34  1  0.17511000  0.70600000  0.72518000  1
  C  C35  1  0.39371000  0.20600000  0.22518000  1
  C  C36  1  0.24293000  0.77150000  0.65484000  1
  C  C37  1  0.33073000  0.27150000  0.15484000  1
  C  C38  1  0.03972000  0.00920000  0.41596000  1
  C  C39  1  0.53512000  0.50920000  0.91596000  1
  C  C40  1  0.83123000  0.93356000  0.43338000  1
  C  C41  1  0.80183000  0.43356000  0.93338000  1
  C  C42  1  0.13758000  0.54424000  0.81340000  1
  C  C43  1  0.50478000  0.04424000  0.31340000  1
  C  C44  1  0.21130000  0.61461000  0.73579000  1
  C  C45  1  0.43830000  0.11461000  0.23579000  1
  C  C46  1  0.31124000  0.24690000  0.09382000  1
  C  C47  1  0.34804000  0.74690000  0.59382000  1
  C  C48  1  0.23639000  0.31837000  0.01985000  1
  C  C49  1  0.42539000  0.81837000  0.51985000  1
  C  C50  1  0.31859000  0.58952000  0.67530000  1
  C  C51  1  0.41659000  0.08952000  0.17530000  1
  C  C52  1  0.35316000  0.15548000  0.10500000  1
  C  C53  1  0.38636000  0.65548000  0.60500000  1
  C  C54  1  0.24104000  0.34470000  0.72382000  1
  C  C55  1  0.69044000  0.84470000  0.22382000  1
  C  C56  1  0.02037000  0.27912000  0.77694000  1
  C  C57  1  0.92357000  0.77912000  0.27694000  1
  C  C58  1  0.24181000  0.19867000  0.84131000  1
  C  C59  1  0.71821000  0.69867000  0.34131000  1
  Co  Co60  1  0.93836000  0.64464000  0.10792000  1
  Co  Co61  1  0.30908000  0.14464000  0.60792000  1
  Co  Co62  1  0.00000000  0.50000000  1.00000000  1
  Co  Co63  1  0.50000000  1.00000000  0.50000000  1
  Co  Co64  1  0.06164000  0.35536000  0.89208000  1
  Co  Co65  1  0.69092000  0.85536000  0.39208000  1
  H  H66  1  0.82050000  0.84160000  0.11020000  1
  H  H67  1  0.22770000  0.34160000  0.61020000  1
  H  H68  1  0.67680000  0.79570000  0.13690000  1
  H  H69  1  0.39060000  0.29570000  0.63690000  1
  H  H70  1  0.02800000  0.25140000  0.67180000  1
  H  H71  1  0.04880000  0.75140000  0.17180000  1
  H  H72  1  0.03550000  0.65990000  0.25630000  1
  H  H73  1  0.04830000  0.15990000  0.75630000  1
  H  H74  1  0.66610000  0.65280000  0.26200000  1
  H  H75  1  0.41910000  0.15280000  0.76200000  1
  H  H76  1  0.81500000  0.59160000  0.30100000  1
  H  H77  1  0.29240000  0.09160000  0.80100000  1
  H  H78  1  0.66160000  0.86240000  0.93580000  1
  H  H79  1  0.54020000  0.36240000  0.43580000  1
  H  H80  1  0.65440000  0.47290000  0.31790000  1
  H  H81  1  0.55480000  0.97290000  0.81790000  1
  H  H82  1  0.93300000  0.98490000  0.64130000  1
  H  H83  1  0.44080000  0.48490000  0.14130000  1
  H  H84  1  0.78280000  0.16630000  0.35150000  1
  H  H85  1  0.69940000  0.66630000  0.85150000  1
  H  H86  1  0.79770000  0.93000000  0.58680000  1
  H  H87  1  0.68550000  0.43000000  0.08680000  1
  H  H88  1  0.89690000  0.27610000  0.23350000  1
  H  H89  1  0.59350000  0.77610000  0.73350000  1
  H  H90  1  0.10310000  0.72390000  0.76650000  1
  H  H91  1  0.40650000  0.22390000  0.26650000  1
  H  H92  1  0.20230000  0.07000000  0.41320000  1
  H  H93  1  0.31450000  0.57000000  0.91320000  1
  H  H94  1  0.21720000  0.83370000  0.64850000  1
  H  H95  1  0.30060000  0.33370000  0.14850000  1
  H  H96  1  0.06700000  0.01510000  0.35870000  1
  H  H97  1  0.55920000  0.51510000  0.85870000  1
  H  H98  1  0.34560000  0.52710000  0.68210000  1
  H  H99  1  0.44520000  0.02710000  0.18210000  1
  H  H100  1  0.33840000  0.13760000  0.06420000  1
  H  H101  1  0.45980000  0.63760000  0.56420000  1
  H  H102  1  0.18500000  0.40840000  0.69900000  1
  H  H103  1  0.70760000  0.90840000  0.19900000  1
  H  H104  1  0.33390000  0.34720000  0.73800000  1
  H  H105  1  0.58090000  0.84720000  0.23800000  1
  H  H106  1  0.96450000  0.34010000  0.74370000  1
  H  H107  1  0.95170000  0.84010000  0.24370000  1
  H  H108  1  0.97200000  0.74860000  0.32820000  1
  H  H109  1  0.95120000  0.24860000  0.82820000  1
  H  H110  1  0.32320000  0.20430000  0.86310000  1
  H  H111  1  0.60940000  0.70430000  0.36310000  1
  H  H112  1  0.17950000  0.15840000  0.88980000  1
  H  H113  1  0.77230000  0.65840000  0.38980000  1
  N  N114  1  0.85177000  0.70898000  0.19748000  1
  N  N115  1  0.24177000  0.20898000  0.69748000  1
  N  N116  1  0.14823000  0.29102000  0.80252000  1
  N  N117  1  0.75823000  0.79102000  0.30252000  1
  O  O118  1  0.77613000  0.70926000  0.03408000  1
  O  O119  1  0.48053000  0.20926000  0.53408000  1
  O  O120  1  0.85040000  0.53225000  0.18935000  1
  O  O121  1  0.42800000  0.03225000  0.68935000  1
  O  O122  1  0.11750000  0.07984000  0.63356000  1
  O  O123  1  0.16910000  0.57984000  0.13356000  1
  O  O124  1  0.09382000  0.58556000  0.02484000  1
  O  O125  1  0.29578000  0.08556000  0.52484000  1
  O  O126  1  0.80876000  0.60239000  0.98227000  1
  O  O127  1  0.60658000  0.10239000  0.48227000  1
  O  O128  1  0.92838000  0.43151000  0.12693000  1
  O  O129  1  0.51318000  0.93151000  0.62693000  1
  O  O130  1  0.07162000  0.56849000  0.87307000  1
  O  O131  1  0.48682000  0.06849000  0.37307000  1
  O  O132  1  0.19124000  0.39761000  0.01773000  1
  O  O133  1  0.39342000  0.89761000  0.51773000  1
  O  O134  1  0.90618000  0.41444000  0.97516000  1
  O  O135  1  0.70422000  0.91444000  0.47516000  1
  O  O136  1  0.88250000  0.92016000  0.36644000  1
  O  O137  1  0.83090000  0.42016000  0.86644000  1
  O  O138  1  0.14960000  0.46775000  0.81065000  1
  O  O139  1  0.57200000  0.96775000  0.31065000  1
  O  O140  1  0.22387000  0.29074000  0.96592000  1
  O  O141  1  0.51947000  0.79074000  0.46592000  1
