# generated using pymatgen
data_LaH7C15O7
_symmetry_space_group_name_H-M   'P 1'
_cell_length_a   9.40400000
_cell_length_b   9.95700000
_cell_length_c   11.45900000
_cell_angle_alpha   93.38100000
_cell_angle_beta   97.71600000
_cell_angle_gamma   110.24200000
_symmetry_Int_Tables_number   1
_chemical_formula_structural   LaH7C15O7
_chemical_formula_sum   'La2 H14 C30 O14'
_cell_volume   991.15420320
_cell_formula_units_Z   2
loop_
 _symmetry_equiv_pos_site_id
 _symmetry_equiv_pos_as_xyz
  1  'x, y, z'
loop_
 _atom_site_type_symbol
 _atom_site_label
 _atom_site_symmetry_multiplicity
 _atom_site_fract_x
 _atom_site_fract_y
 _atom_site_fract_z
 _atom_site_occupancy
  La  La0  1  0.21553000  0.45274000  0.51807000  1
  La  La1  1  0.78447000  0.54726000  0.48193000  1
  H  H2  1  0.18560000  0.00410000  0.46570000  1
  H  H3  1  0.23970000  0.78480000  0.88170000  1
  H  H4  1  0.30790000  0.71730000  0.27870000  1
  H  H5  1  0.33350000  0.90960000  0.07210000  1
  H  H6  1  0.35440000  0.28140000  0.88160000  1
  H  H7  1  0.41730000  0.86660000  0.66666667  1
  H  H8  1  0.44040000  0.39760000  0.07590000  1
  H  H9  1  0.55960000  0.60240000  0.92410000  1
  H  H10  1  0.58270000  0.13340000  0.33340000  1
  H  H11  1  0.64560000  0.71860000  0.11840000  1
  H  H12  1  0.66650000  0.09040000  0.92790000  1
  H  H13  1  0.69210000  0.28270000  0.72130000  1
  H  H14  1  0.76030000  0.21520000  0.11830000  1
  H  H15  1  0.81440000  0.99590000  0.53430000  1
  C  C16  1  0.08040000  0.72870000  0.39620000  1
  C  C17  1  0.22380000  0.84330000  0.37680000  1
  C  C18  1  0.25480000  0.98270000  0.42400000  1
  C  C19  1  0.32050000  0.77070000  0.92900000  1
  C  C20  1  0.32220000  0.58990000  0.76630000  1
  C  C21  1  0.32690000  0.81140000  0.31000000  1
  C  C22  1  0.37630000  0.84560000  0.04350000  1
  C  C23  1  0.38610000  0.67460000  0.88570000  1
  C  C24  1  0.39020000  0.09240000  0.40940000  1
  C  C25  1  0.42830000  0.24320000  0.46880000  1
  C  C26  1  0.43540000  0.26800000  0.92930000  1
  C  C27  1  0.45530000  0.92230000  0.29260000  1
  C  C28  1  0.48940000  0.34000000  0.04560000  1
  C  C29  1  0.49200000  0.06140000  0.34310000  1
  C  C30  1  0.49560000  0.82220000  0.11230000  1
  C  C31  1  0.50440000  0.17780000  0.88770000  1
  C  C32  1  0.50800000  0.93860000  0.65690000  1
  C  C33  1  0.51060000  0.66000000  0.95440000  1
  C  C34  1  0.54470000  0.07770000  0.70740000  1
  C  C35  1  0.56460000  0.73200000  0.07070000  1
  C  C36  1  0.57170000  0.75680000  0.53120000  1
  C  C37  1  0.60980000  0.90760000  0.59060000  1
  C  C38  1  0.61390000  0.32540000  0.11430000  1
  C  C39  1  0.62370000  0.15440000  0.95650000  1
  C  C40  1  0.67310000  0.18860000  0.69000000  1
  C  C41  1  0.67780000  0.41010000  0.23370000  1
  C  C42  1  0.67950000  0.22930000  0.07100000  1
  C  C43  1  0.74520000  0.01730000  0.57600000  1
  C  C44  1  0.77620000  0.15670000  0.62320000  1
  C  C45  1  0.91960000  0.27130000  0.60380000  1
  O  O46  1  0.04070000  0.24520000  0.61570000  1
  O  O47  1  0.08360000  0.60760000  0.42430000  1
  O  O48  1  0.21210000  0.61010000  0.70240000  1
  O  O49  1  0.32440000  0.26610000  0.51850000  1
  O  O50  1  0.37880000  0.49950000  0.73210000  1
  O  O51  1  0.44150000  0.10450000  0.77440000  1
  O  O52  1  0.44360000  0.66440000  0.53430000  1
  O  O53  1  0.55640000  0.33560000  0.46570000  1
  O  O54  1  0.55850000  0.89550000  0.22560000  1
  O  O55  1  0.62120000  0.50050000  0.26790000  1
  O  O56  1  0.67560000  0.73390000  0.48150000  1
  O  O57  1  0.78790000  0.38990000  0.29760000  1
  O  O58  1  0.91640000  0.39240000  0.57570000  1
  O  O59  1  0.95930000  0.75480000  0.38430000  1
