# generated using pymatgen
data_Cu2SiH16(C7O2)4
_symmetry_space_group_name_H-M   'P 1'
_cell_length_a   12.37100000
_cell_length_b   12.37100000
_cell_length_c   24.06890000
_cell_angle_alpha   90.00000000
_cell_angle_beta   90.00000000
_cell_angle_gamma   90.00000000
_symmetry_Int_Tables_number   1
_chemical_formula_structural   Cu2SiH16(C7O2)4
_chemical_formula_sum   'Cu4 Si2 H32 C56 O16'
_cell_volume   3683.54395306
_cell_formula_units_Z   2
loop_
 _symmetry_equiv_pos_site_id
 _symmetry_equiv_pos_as_xyz
  1  'x, y, z'
loop_
 _atom_site_type_symbol
 _atom_site_label
 _atom_site_symmetry_multiplicity
 _atom_site_fract_x
 _atom_site_fract_y
 _atom_site_fract_z
 _atom_site_occupancy
  Cu  Cu0  1  0.10740000  0.50000000  0.00000000  1
  Cu  Cu1  1  0.50000000  0.10740000  0.50000000  1
  Cu  Cu2  1  0.50000000  0.89260000  0.50000000  1
  Cu  Cu3  1  0.89260000  0.50000000  0.00000000  1
  Si  Si4  1  0.00000000  0.00000000  0.25000000  1
  Si  Si5  1  0.00000000  0.00000000  0.75000000  1
  H  H6  1  0.13000000  0.16260000  0.30490000  1
  H  H7  1  0.13000000  0.16260000  0.69510000  1
  H  H8  1  0.13000000  0.83740000  0.30490000  1
  H  H9  1  0.13000000  0.83740000  0.69510000  1
  H  H10  1  0.15940000  0.26650000  0.12730000  1
  H  H11  1  0.15940000  0.26650000  0.87270000  1
  H  H12  1  0.15940000  0.73350000  0.12730000  1
  H  H13  1  0.15940000  0.73350000  0.87270000  1
  H  H14  1  0.16260000  0.13000000  0.19510000  1
  H  H15  1  0.16260000  0.13000000  0.80490000  1
  H  H16  1  0.16260000  0.87000000  0.19510000  1
  H  H17  1  0.16260000  0.87000000  0.80490000  1
  H  H18  1  0.26650000  0.15940000  0.37270000  1
  H  H19  1  0.26650000  0.15940000  0.62730000  1
  H  H20  1  0.26650000  0.84060000  0.37270000  1
  H  H21  1  0.26650000  0.84060000  0.62730000  1
  H  H22  1  0.73350000  0.15940000  0.37270000  1
  H  H23  1  0.73350000  0.15940000  0.62730000  1
  H  H24  1  0.73350000  0.84060000  0.37270000  1
  H  H25  1  0.73350000  0.84060000  0.62730000  1
  H  H26  1  0.83740000  0.13000000  0.19510000  1
  H  H27  1  0.83740000  0.13000000  0.80490000  1
  H  H28  1  0.83740000  0.87000000  0.19510000  1
  H  H29  1  0.83740000  0.87000000  0.80490000  1
  H  H30  1  0.84060000  0.26650000  0.12730000  1
  H  H31  1  0.84060000  0.26650000  0.87270000  1
  H  H32  1  0.84060000  0.73350000  0.12730000  1
  H  H33  1  0.84060000  0.73350000  0.87270000  1
  H  H34  1  0.87000000  0.16260000  0.30490000  1
  H  H35  1  0.87000000  0.16260000  0.69510000  1
  H  H36  1  0.87000000  0.83740000  0.30490000  1
  H  H37  1  0.87000000  0.83740000  0.69510000  1
  C  C38  1  0.00000000  0.11740000  0.20230000  1
  C  C39  1  0.00000000  0.11740000  0.79770000  1
  C  C40  1  0.00000000  0.27320000  0.11940000  1
  C  C41  1  0.00000000  0.27320000  0.88060000  1
  C  C42  1  0.00000000  0.35810000  0.07320000  1
  C  C43  1  0.00000000  0.35810000  0.92680000  1
  C  C44  1  0.00000000  0.64190000  0.07320000  1
  C  C45  1  0.00000000  0.64190000  0.92680000  1
  C  C46  1  0.00000000  0.72680000  0.11940000  1
  C  C47  1  0.00000000  0.72680000  0.88060000  1
  C  C48  1  0.00000000  0.88260000  0.20230000  1
  C  C49  1  0.00000000  0.88260000  0.79770000  1
  C  C50  1  0.09320000  0.23710000  0.14050000  1
  C  C51  1  0.09320000  0.23710000  0.85950000  1
  C  C52  1  0.09320000  0.76290000  0.14050000  1
  C  C53  1  0.09320000  0.76290000  0.85950000  1
  C  C54  1  0.09560000  0.15680000  0.18170000  1
  C  C55  1  0.09560000  0.15680000  0.81830000  1
  C  C56  1  0.09560000  0.84320000  0.18170000  1
  C  C57  1  0.09560000  0.84320000  0.81830000  1
  C  C58  1  0.11740000  0.00000000  0.29770000  1
  C  C59  1  0.11740000  0.00000000  0.70230000  1
  C  C60  1  0.15680000  0.09560000  0.31830000  1
  C  C61  1  0.15680000  0.09560000  0.68170000  1
  C  C62  1  0.15680000  0.90440000  0.31830000  1
  C  C63  1  0.15680000  0.90440000  0.68170000  1
  C  C64  1  0.23710000  0.09320000  0.35950000  1
  C  C65  1  0.23710000  0.09320000  0.64050000  1
  C  C66  1  0.23710000  0.90680000  0.35950000  1
  C  C67  1  0.23710000  0.90680000  0.64050000  1
  C  C68  1  0.27320000  0.00000000  0.38060000  1
  C  C69  1  0.27320000  0.00000000  0.61940000  1
  C  C70  1  0.35810000  0.00000000  0.42680000  1
  C  C71  1  0.35810000  0.00000000  0.57320000  1
  C  C72  1  0.64190000  0.00000000  0.42680000  1
  C  C73  1  0.64190000  0.00000000  0.57320000  1
  C  C74  1  0.72680000  0.00000000  0.38060000  1
  C  C75  1  0.72680000  0.00000000  0.61940000  1
  C  C76  1  0.76290000  0.09320000  0.35950000  1
  C  C77  1  0.76290000  0.09320000  0.64050000  1
  C  C78  1  0.76290000  0.90680000  0.35950000  1
  C  C79  1  0.76290000  0.90680000  0.64050000  1
  C  C80  1  0.84320000  0.09560000  0.31830000  1
  C  C81  1  0.84320000  0.09560000  0.68170000  1
  C  C82  1  0.84320000  0.90440000  0.31830000  1
  C  C83  1  0.84320000  0.90440000  0.68170000  1
  C  C84  1  0.88260000  0.00000000  0.29770000  1
  C  C85  1  0.88260000  0.00000000  0.70230000  1
  C  C86  1  0.90440000  0.15680000  0.18170000  1
  C  C87  1  0.90440000  0.15680000  0.81830000  1
  C  C88  1  0.90440000  0.84320000  0.18170000  1
  C  C89  1  0.90440000  0.84320000  0.81830000  1
  C  C90  1  0.90680000  0.23710000  0.14050000  1
  C  C91  1  0.90680000  0.23710000  0.85950000  1
  C  C92  1  0.90680000  0.76290000  0.14050000  1
  C  C93  1  0.90680000  0.76290000  0.85950000  1
  O  O94  1  0.09080000  0.38780000  0.05683000  1
  O  O95  1  0.09080000  0.38780000  0.94317000  1
  O  O96  1  0.09080000  0.61220000  0.05683000  1
  O  O97  1  0.09080000  0.61220000  0.94317000  1
  O  O98  1  0.38780000  0.09080000  0.44317000  1
  O  O99  1  0.38780000  0.09080000  0.55683000  1
  O  O100  1  0.38780000  0.90920000  0.44317000  1
  O  O101  1  0.38780000  0.90920000  0.55683000  1
  O  O102  1  0.61220000  0.09080000  0.44317000  1
  O  O103  1  0.61220000  0.09080000  0.55683000  1
  O  O104  1  0.61220000  0.90920000  0.44317000  1
  O  O105  1  0.61220000  0.90920000  0.55683000  1
  O  O106  1  0.90920000  0.38780000  0.05683000  1
  O  O107  1  0.90920000  0.38780000  0.94317000  1
  O  O108  1  0.90920000  0.61220000  0.05683000  1
  O  O109  1  0.90920000  0.61220000  0.94317000  1
