# generated using pymatgen
data_CuC14(NF)8
_symmetry_space_group_name_H-M   'P 1'
_cell_length_a   13.87210000
_cell_length_b   15.89910000
_cell_length_c   17.67429554
_cell_angle_alpha   63.27042872
_cell_angle_beta   78.89425153
_cell_angle_gamma   64.64310000
_symmetry_Int_Tables_number   1
_chemical_formula_structural   CuC14(NF)8
_chemical_formula_sum   'Cu4 C56 N32 F32'
_cell_volume   3146.15452988
_cell_formula_units_Z   4
loop_
 _symmetry_equiv_pos_site_id
 _symmetry_equiv_pos_as_xyz
  1  'x, y, z'
loop_
 _atom_site_type_symbol
 _atom_site_label
 _atom_site_symmetry_multiplicity
 _atom_site_fract_x
 _atom_site_fract_y
 _atom_site_fract_z
 _atom_site_occupancy
  Cu  Cu0  1  1.00000000  0.50000000  0.00000000  1
  Cu  Cu1  1  0.75670000  0.48423000  0.00000000  1
  Cu  Cu2  1  0.50000000  0.50000000  0.00000000  1
  Cu  Cu3  1  0.24330000  0.51577000  0.00000000  1
  C  C4  1  0.88470000  0.45258000  0.34824000  1
  C  C5  1  0.88470000  0.80082000  0.65176000  1
  C  C6  1  0.86870000  0.44010000  0.43120000  1
  C  C7  1  0.86870000  0.87130000  0.56880000  1
  C  C8  1  0.81910000  0.50081000  0.20718000  1
  C  C9  1  0.81910000  0.70799000  0.79282000  1
  C  C10  1  0.80220000  0.48655000  0.29490000  1
  C  C11  1  0.80220000  0.78145000  0.70510000  1
  C  C12  1  0.78690000  0.08390000  0.42080000  1
  C  C13  1  0.78690000  0.50470000  0.57920000  1
  C  C14  1  0.76970000  0.46154000  0.46772000  1
  C  C15  1  0.76970000  0.92926000  0.53228000  1
  C  C16  1  0.76450000  0.16800000  0.34420000  1
  C  C17  1  0.76450000  0.51220000  0.65580000  1
  C  C18  1  0.75250000  0.01251000  0.44458000  1
  C  C19  1  0.75250000  0.45709000  0.55542000  1
  C  C20  1  0.70800000  0.17479000  0.28402000  1
  C  C21  1  0.70800000  0.45881000  0.71598000  1
  C  C22  1  0.70170000  0.50773000  0.33294000  1
  C  C23  1  0.70170000  0.84067000  0.66706000  1
  C  C24  1  0.69510000  0.01639000  0.38582000  1
  C  C25  1  0.69510000  0.40221000  0.61418000  1
  C  C26  1  0.68630000  0.49319000  0.41502000  1
  C  C27  1  0.68630000  0.90821000  0.58498000  1
  C  C28  1  0.68460000  0.26185000  0.19990000  1
  C  C29  1  0.68460000  0.46175000  0.80010000  1
  C  C30  1  0.67220000  0.09822000  0.30716000  1
  C  C31  1  0.67220000  0.40538000  0.69284000  1
  C  C32  1  0.32780000  0.59462000  0.30716000  1
  C  C33  1  0.32780000  0.90178000  0.69284000  1
  C  C34  1  0.31540000  0.53825000  0.19990000  1
  C  C35  1  0.31540000  0.73815000  0.80010000  1
  C  C36  1  0.31370000  0.09179000  0.41502000  1
  C  C37  1  0.31370000  0.50681000  0.58498000  1
  C  C38  1  0.30490000  0.59779000  0.38582000  1
  C  C39  1  0.30490000  0.98361000  0.61418000  1
  C  C40  1  0.29830000  0.15933000  0.33294000  1
  C  C41  1  0.29830000  0.49227000  0.66706000  1
  C  C42  1  0.29200000  0.54119000  0.28402000  1
  C  C43  1  0.29200000  0.82521000  0.71598000  1
  C  C44  1  0.24750000  0.54291000  0.44458000  1
  C  C45  1  0.24750000  0.98749000  0.55542000  1
  C  C46  1  0.23550000  0.48780000  0.34420000  1
  C  C47  1  0.23550000  0.83200000  0.65580000  1
  C  C48  1  0.23030000  0.07074000  0.46772000  1
  C  C49  1  0.23030000  0.53846000  0.53228000  1
  C  C50  1  0.21310000  0.49530000  0.42080000  1
  C  C51  1  0.21310000  0.91610000  0.57920000  1
  C  C52  1  0.19780000  0.21855000  0.29490000  1
  C  C53  1  0.19780000  0.51345000  0.70510000  1
  C  C54  1  0.18090000  0.29201000  0.20718000  1
  C  C55  1  0.18090000  0.49919000  0.79282000  1
  C  C56  1  0.13130000  0.12870000  0.43120000  1
  C  C57  1  0.13130000  0.55990000  0.56880000  1
  C  C58  1  0.11530000  0.19918000  0.34824000  1
  C  C59  1  0.11530000  0.54742000  0.65176000  1
  N  N60  1  0.90460000  0.51215000  0.16150000  1
  N  N61  1  0.90460000  0.67365000  0.83850000  1
  N  N62  1  0.88990000  0.51180000  0.09080000  1
  N  N63  1  0.88990000  0.60260000  0.90920000  1
  N  N64  1  0.80100000  0.50123000  0.09134000  1
  N  N65  1  0.80100000  0.59257000  0.90866000  1
  N  N66  1  0.75740000  0.30282000  0.15616000  1
  N  N67  1  0.75740000  0.45898000  0.84384000  1
  N  N68  1  0.75300000  0.49519000  0.16482000  1
  N  N69  1  0.75300000  0.66001000  0.83518000  1
  N  N70  1  0.70550000  0.37930000  0.08880000  1
  N  N71  1  0.70550000  0.46810000  0.91120000  1
  N  N72  1  0.60650000  0.38641000  0.09138000  1
  N  N73  1  0.60650000  0.47779000  0.90862000  1
  N  N74  1  0.59110000  0.31300000  0.16040000  1
  N  N75  1  0.59110000  0.47340000  0.83960000  1
  N  N76  1  0.40890000  0.52660000  0.16040000  1
  N  N77  1  0.40890000  0.68700000  0.83960000  1
  N  N78  1  0.39350000  0.52221000  0.09138000  1
  N  N79  1  0.39350000  0.61359000  0.90862000  1
  N  N80  1  0.29450000  0.53190000  0.08880000  1
  N  N81  1  0.29450000  0.62070000  0.91120000  1
  N  N82  1  0.24700000  0.33999000  0.16482000  1
  N  N83  1  0.24700000  0.50481000  0.83518000  1
  N  N84  1  0.24260000  0.54102000  0.15616000  1
  N  N85  1  0.24260000  0.69718000  0.84384000  1
  N  N86  1  0.19900000  0.40743000  0.09134000  1
  N  N87  1  0.19900000  0.49877000  0.90866000  1
  N  N88  1  0.11010000  0.39740000  0.09080000  1
  N  N89  1  0.11010000  0.48820000  0.90920000  1
  N  N90  1  0.09540000  0.32635000  0.16150000  1
  N  N91  1  0.09540000  0.48785000  0.83850000  1
  F  F92  1  0.98250000  0.43663000  0.31754000  1
  F  F93  1  0.98250000  0.75417000  0.68246000  1
  F  F94  1  0.95150000  0.40756000  0.47808000  1
  F  F95  1  0.95150000  0.88564000  0.52192000  1
  F  F96  1  0.83850000  0.08971000  0.47858000  1
  F  F97  1  0.83850000  0.56829000  0.52142000  1
  F  F98  1  0.80120000  0.24068000  0.32524000  1
  F  F99  1  0.80120000  0.56592000  0.67476000  1
  F  F100  1  0.66090000  0.34608000  0.59604000  1
  F  F101  1  0.66090000  0.94212000  0.40396000  1
  F  F102  1  0.62030000  0.09705000  0.25230000  1
  F  F103  1  0.62030000  0.34935000  0.74770000  1
  F  F104  1  0.61530000  0.54175000  0.28610000  1
  F  F105  1  0.61530000  0.82785000  0.71390000  1
  F  F106  1  0.58490000  0.51988000  0.44424000  1
  F  F107  1  0.58490000  0.96412000  0.55576000  1
  F  F108  1  0.41510000  0.03588000  0.44424000  1
  F  F109  1  0.41510000  0.48012000  0.55576000  1
  F  F110  1  0.38470000  0.17215000  0.28610000  1
  F  F111  1  0.38470000  0.45825000  0.71390000  1
  F  F112  1  0.37970000  0.65065000  0.25230000  1
  F  F113  1  0.37970000  0.90295000  0.74770000  1
  F  F114  1  0.33910000  0.05788000  0.59604000  1
  F  F115  1  0.33910000  0.65392000  0.40396000  1
  F  F116  1  0.19880000  0.43408000  0.32524000  1
  F  F117  1  0.19880000  0.75932000  0.67476000  1
  F  F118  1  0.16150000  0.43171000  0.47858000  1
  F  F119  1  0.16150000  0.91029000  0.52142000  1
  F  F120  1  0.04850000  0.11436000  0.47808000  1
  F  F121  1  0.04850000  0.59244000  0.52192000  1
  F  F122  1  0.01750000  0.24583000  0.31754000  1
  F  F123  1  0.01750000  0.56337000  0.68246000  1
