# generated using pymatgen
data_In5H7C5(S4N)2
_symmetry_space_group_name_H-M   'P 1'
_cell_length_a   24.84380000
_cell_length_b   24.84380000
_cell_length_c   25.31612119
_cell_angle_alpha   119.38478514
_cell_angle_beta   119.38467300
_cell_angle_gamma   90.00000000
_symmetry_Int_Tables_number   1
_chemical_formula_structural   In5H7C5(S4N)2
_chemical_formula_sum   'In40 H56 C40 S64 N16'
_cell_volume   11251.24108107
_cell_formula_units_Z   8
loop_
 _symmetry_equiv_pos_site_id
 _symmetry_equiv_pos_as_xyz
  1  'x, y, z'
loop_
 _atom_site_type_symbol
 _atom_site_label
 _atom_site_symmetry_multiplicity
 _atom_site_fract_x
 _atom_site_fract_y
 _atom_site_fract_z
 _atom_site_occupancy
  In  In0  1  0.07578000  0.75603000  0.21842000  1
  In  In1  1  0.09910000  0.63526000  0.07388000  1
  In  In2  1  0.11035000  0.49713000  0.92838000  1
  In  In3  1  0.11565000  0.61565000  0.23130000  1
  In  In4  1  0.13457000  0.47478000  0.07352000  1
  In  In5  1  0.14264000  0.46239000  0.21842000  1
  In  In6  1  0.18125000  0.06803000  0.42838000  1
  In  In7  1  0.18862000  0.22478000  0.57388000  1
  In  In8  1  0.20737000  0.20737000  0.41474000  1
  In  In9  1  0.21239000  0.39264000  0.71842000  1
  In  In10  1  0.22478000  0.38457000  0.57352000  1
  In  In11  1  0.24397000  0.85736000  0.78158000  1
  In  In12  1  0.24713000  0.36035000  0.42838000  1
  In  In13  1  0.34874000  0.18895000  0.57352000  1
  In  In14  1  0.36474000  0.02522000  0.92612000  1
  In  In15  1  0.36565000  0.36565000  0.73130000  1
  In  In16  1  0.38435000  0.88435000  0.76870000  1
  In  In17  1  0.38526000  0.34910000  0.57388000  1
  In  In18  1  0.40126000  0.86543000  0.92648000  1
  In  In19  1  0.50287000  0.18197000  0.07162000  1
  In  In20  1  0.50603000  0.32578000  0.71842000  1
  In  In21  1  0.52522000  0.06105000  0.92648000  1
  In  In22  1  0.53761000  0.92422000  0.78158000  1
  In  In23  1  0.54263000  0.04263000  0.08526000  1
  In  In24  1  0.56138000  0.90090000  0.92612000  1
  In  In25  1  0.56875000  0.88965000  0.07162000  1
  In  In26  1  0.60736000  0.49397000  0.28158000  1
  In  In27  1  0.61543000  0.65126000  0.42648000  1
  In  In28  1  0.63435000  0.63435000  0.26870000  1
  In  In29  1  0.63965000  0.81875000  0.57162000  1
  In  In30  1  0.65090000  0.81138000  0.42612000  1
  In  In31  1  0.67422000  0.78761000  0.28158000  1
  In  In32  1  0.77522000  0.61474000  0.42612000  1
  In  In33  1  0.79263000  0.79263000  0.58526000  1
  In  In34  1  0.81105000  0.77522000  0.42648000  1
  In  In35  1  0.81803000  0.43125000  0.92838000  1
  In  In36  1  0.93197000  0.75287000  0.57162000  1
  In  In37  1  0.93895000  0.59874000  0.07352000  1
  In  In38  1  0.95737000  0.45737000  0.91474000  1
  In  In39  1  0.97478000  0.43862000  0.07388000  1
  H  H40  1  0.01140000  0.86190000  0.30380000  1
  H  H41  1  0.01670000  0.70370000  0.65480000  1
  H  H42  1  0.03160000  0.85850000  0.63420000  1
  H  H43  1  0.04890000  0.98330000  0.34520000  1
  H  H44  1  0.07900000  0.90420000  0.62240000  1
  H  H45  1  0.09210000  0.38070000  0.28580000  1
  H  H46  1  0.09450000  0.46810000  0.32020000  1
  H  H47  1  0.09490000  0.90790000  0.71420000  1
  H  H48  1  0.09580000  0.45660000  0.37760000  1
  H  H49  1  0.09860000  0.83890000  0.60160000  1
  H  H50  1  0.11190000  0.54630000  0.84520000  1
  H  H51  1  0.13070000  0.34210000  0.78580000  1
  H  H52  1  0.13810000  0.70760000  0.69620000  1
  H  H53  1  0.14150000  0.39740000  0.36580000  1
  H  H54  1  0.14740000  0.39150000  0.86580000  1
  H  H55  1  0.14790000  0.90550000  0.67980000  1
  H  H56  1  0.16110000  0.49700000  0.39840000  1
  H  H57  1  0.19190000  0.54240000  0.80380000  1
  H  H58  1  0.19370000  0.90510000  0.28580000  1
  H  H59  1  0.20660000  0.34580000  0.87760000  1
  H  H60  1  0.21810000  0.34450000  0.82020000  1
  H  H61  1  0.22430000  0.96840000  0.36580000  1
  H  H62  1  0.22570000  0.85210000  0.32020000  1
  H  H63  1  0.23730000  0.90140000  0.39840000  1
  H  H64  1  0.24700000  0.41110000  0.89840000  1
  H  H65  1  0.28180000  0.92100000  0.37760000  1
  H  H66  1  0.29240000  0.44190000  0.30380000  1
  H  H67  1  0.29630000  0.36190000  0.34520000  1
  H  H68  1  0.45370000  0.26670000  0.15480000  1
  H  H69  1  0.45760000  0.38810000  0.19620000  1
  H  H70  1  0.46820000  0.79340000  0.12240000  1
  H  H71  1  0.50300000  0.76270000  0.60160000  1
  H  H72  1  0.51270000  0.75300000  0.10160000  1
  H  H73  1  0.52430000  0.78190000  0.17980000  1
  H  H74  1  0.52570000  0.85260000  0.13420000  1
  H  H75  1  0.53190000  0.77430000  0.67980000  1
  H  H76  1  0.54340000  0.71820000  0.62240000  1
  H  H77  1  0.55630000  0.86930000  0.21420000  1
  H  H78  1  0.55810000  0.98860000  0.69620000  1
  H  H79  1  0.58890000  0.34860000  0.10160000  1
  H  H80  1  0.60210000  0.47570000  0.82020000  1
  H  H81  1  0.60260000  0.77570000  0.63420000  1
  H  H82  1  0.60850000  0.28160000  0.13420000  1
  H  H83  1  0.61190000  0.26140000  0.80380000  1
  H  H84  1  0.61930000  0.80630000  0.71420000  1
  H  H85  1  0.63810000  0.95110000  0.65480000  1
  H  H86  1  0.65140000  0.48730000  0.89840000  1
  H  H87  1  0.65420000  0.32900000  0.12240000  1
  H  H88  1  0.65510000  0.44370000  0.78580000  1
  H  H89  1  0.65550000  0.39790000  0.17980000  1
  H  H90  1  0.65790000  0.34490000  0.21420000  1
  H  H91  1  0.67100000  0.53180000  0.87760000  1
  H  H92  1  0.70110000  0.88810000  0.15480000  1
  H  H93  1  0.71840000  0.47430000  0.86580000  1
  H  H94  1  0.73330000  0.29890000  0.84520000  1
  H  H95  1  0.73860000  0.80810000  0.19620000  1
  C  C96  1  0.04670000  0.88500000  0.31000000  1
  C  C97  1  0.04740000  0.73140000  0.65880000  1
  C  C98  1  0.07260000  0.95260000  0.34120000  1
  C  C99  1  0.07900000  0.86800000  0.66600000  1
  C  C100  1  0.08720000  0.81400000  0.67740000  1
  C  C101  1  0.10200000  0.88000000  0.64200000  1
  C  C102  1  0.11500000  0.73670000  0.69000000  1
  C  C103  1  0.12000000  0.46000000  0.35800000  1
  C  C104  1  0.13200000  0.41300000  0.33400000  1
  C  C105  1  0.13660000  0.91280000  0.32260000  1
  C  C106  1  0.13860000  0.51860000  0.84120000  1
  C  C107  1  0.15980000  0.43600000  0.82260000  1
  C  C108  1  0.16300000  0.38200000  0.83400000  1
  C  C109  1  0.17500000  0.51330000  0.81000000  1
  C  C110  1  0.18600000  0.40980000  0.32260000  1
  C  C111  1  0.20200000  0.92100000  0.33400000  1
  C  C112  1  0.21000000  0.37000000  0.85800000  1
  C  C113  1  0.23800000  0.89800000  0.35800000  1
  C  C114  1  0.26330000  0.42500000  0.31000000  1
  C  C115  1  0.26860000  0.38860000  0.34120000  1
  C  C116  1  0.48140000  0.29740000  0.15880000  1
  C  C117  1  0.48670000  0.36500000  0.19000000  1
  C  C118  1  0.51200000  0.79000000  0.14200000  1
  C  C119  1  0.54000000  0.76200000  0.64200000  1
  C  C120  1  0.54800000  0.83700000  0.16600000  1
  C  C121  1  0.56400000  0.33720000  0.17740000  1
  C  C122  1  0.57500000  0.95330000  0.69000000  1
  C  C123  1  0.58700000  0.79800000  0.66600000  1
  C  C124  1  0.59020000  0.86340000  0.67740000  1
  C  C125  1  0.61140000  0.92740000  0.65880000  1
  C  C126  1  0.61340000  0.84020000  0.17740000  1
  C  C127  1  0.61800000  0.32900000  0.16600000  1
  C  C128  1  0.63000000  0.35200000  0.14200000  1
  C  C129  1  0.63500000  0.29670000  0.81000000  1
  C  C130  1  0.64800000  0.48800000  0.85800000  1
  C  C131  1  0.66280000  0.38660000  0.82260000  1
  C  C132  1  0.67100000  0.45200000  0.83400000  1
  C  C133  1  0.67740000  0.86140000  0.15880000  1
  C  C134  1  0.70260000  0.32260000  0.84120000  1
  C  C135  1  0.70330000  0.82500000  0.19000000  1
  S  S136  1  0.01421000  0.41631000  0.99322000  1
  S  S137  1  0.03000000  0.39910000  0.14980000  1
  S  S138  1  0.11980000  0.75070000  0.14980000  1
  S  S139  1  0.13270000  0.10980000  0.49760000  1
  S  S140  1  0.13510000  0.73030000  0.30700000  1
  S  S141  1  0.13780000  0.61490000  0.99760000  1
  S  S142  1  0.14910000  0.28000000  0.64980000  1
  S  S143  1  0.15160000  0.09190000  0.33760000  1
  S  S144  1  0.15628000  0.59468000  0.15216000  1
  S  S145  1  0.16631000  0.26421000  0.49322000  1
  S  S146  1  0.17190000  0.57670000  0.30700000  1
  S  S147  1  0.17260000  0.45340000  0.99620000  1
  S  S148  1  0.18600000  0.24570000  0.33760000  1
  S  S149  1  0.18620000  0.44080000  0.64900000  1
  S  S150  1  0.19080000  0.43620000  0.14900000  1
  S  S151  1  0.20340000  0.42260000  0.49620000  1
  S  S152  1  0.24930000  0.97000000  0.85020000  1
  S  S153  1  0.26970000  0.82810000  0.69300000  1
  S  S154  1  0.28720000  0.80920000  0.85100000  1
  S  S155  1  0.29280000  0.07360000  0.49620000  1
  S  S156  1  0.30748000  0.24588000  0.65216000  1
  S  S157  1  0.32670000  0.42190000  0.80700000  1
  S  S158  1  0.32691000  0.22901000  0.49322000  1
  S  S159  1  0.34468000  0.40628000  0.65216000  1
  S  S160  1  0.36490000  0.38780000  0.49760000  1
  S  S161  1  0.38510000  0.14020000  0.00240000  1
  S  S162  1  0.40532000  0.00412000  0.84784000  1
  S  S163  1  0.42309000  0.98579000  0.00678000  1
  S  S164  1  0.42330000  0.86490000  0.69300000  1
  S  S165  1  0.44252000  0.84372000  0.84784000  1
  S  S166  1  0.45720000  0.82740000  0.00380000  1
  S  S167  1  0.46280000  0.20820000  0.64900000  1
  S  S168  1  0.48030000  0.38510000  0.80700000  1
  S  S169  1  0.50070000  0.36980000  0.64980000  1
  S  S170  1  0.54660000  0.17640000  0.00380000  1
  S  S171  1  0.55920000  0.53720000  0.35100000  1
  S  S172  1  0.56380000  0.04180000  0.85100000  1
  S  S173  1  0.56400000  0.15810000  0.16240000  1
  S  S174  1  0.57740000  0.70720000  0.50380000  1
  S  S175  1  0.57810000  0.51970000  0.19300000  1
  S  S176  1  0.58369000  0.02099000  0.00678000  1
  S  S177  1  0.59372000  0.69252000  0.34784000  1
  S  S178  1  0.59840000  0.00430000  0.16240000  1
  S  S179  1  0.60090000  0.88020000  0.85020000  1
  S  S180  1  0.61220000  0.86730000  0.50240000  1
  S  S181  1  0.61490000  0.67330000  0.19300000  1
  S  S182  1  0.61730000  0.86220000  0.00240000  1
  S  S183  1  0.63020000  0.85090000  0.35020000  1
  S  S184  1  0.72000000  0.49930000  0.35020000  1
  S  S185  1  0.73579000  0.67309000  0.50678000  1
  S  S186  1  0.75412000  0.65532000  0.34784000  1
  S  S187  1  0.75430000  0.84840000  0.66240000  1
  S  S188  1  0.77099000  0.83369000  0.50678000  1
  S  S189  1  0.79180000  0.81380000  0.35100000  1
  S  S190  1  0.82360000  0.54280000  0.99620000  1
  S  S191  1  0.84190000  0.40160000  0.83760000  1
  S  S192  1  0.85980000  0.38270000  0.99760000  1
  S  S193  1  0.89020000  0.63510000  0.50240000  1
  S  S194  1  0.90810000  0.81400000  0.66240000  1
  S  S195  1  0.92640000  0.79660000  0.50380000  1
  S  S196  1  0.95820000  0.71280000  0.14900000  1
  S  S197  1  0.97901000  0.57691000  0.99322000  1
  S  S198  1  0.99570000  0.43600000  0.83760000  1
  S  S199  1  0.99588000  0.55748000  0.15216000  1
  N  N200  1  0.03500000  0.76780000  0.63740000  1
  N  N201  1  0.08990000  0.86280000  0.28800000  1
  N  N202  1  0.13040000  0.96500000  0.36260000  1
  N  N203  1  0.13720000  0.80190000  0.71200000  1
  N  N204  1  0.14760000  0.48220000  0.86260000  1
  N  N205  1  0.17520000  0.44810000  0.78800000  1
  N  N206  1  0.19810000  0.42520000  0.28800000  1
  N  N207  1  0.23220000  0.39760000  0.36260000  1
  N  N208  1  0.51780000  0.28500000  0.13740000  1
  N  N209  1  0.55190000  0.38720000  0.21200000  1
  N  N210  1  0.57480000  0.91010000  0.71200000  1
  N  N211  1  0.60240000  0.86960000  0.63740000  1
  N  N212  1  0.61280000  0.33990000  0.78800000  1
  N  N213  1  0.61960000  0.85240000  0.13740000  1
  N  N214  1  0.66010000  0.82480000  0.21200000  1
  N  N215  1  0.71500000  0.38040000  0.86260000  1
