data_I
_chemical_name_common  '/home/dharunkraja/Desktop/D/MOFSNN_D/CGCNN_MT/data/WS24/clean_cifs/mil-47-'
_cell_length_a  6.81790
_cell_length_b 13.93900
_cell_length_c 16.14300
_cell_angle_alpha 90.00000
_cell_angle_beta  90.00000
_cell_angle_gamma 90.00000
_space_group_name_H-M_alt      'P 1'


loop_
_space_group_symop_operation_xyz
  'x, y, z'

loop_
_atom_site_label
_atom_site_fract_x
_atom_site_fract_y
_atom_site_fract_z
_atom_site_type_symbol
C       0.0089    0.065   0.5649     C
C       0.0089    0.065   0.9351     C
C       0.0219   0.1333   0.6366     C
C       0.0219   0.1333   0.8634     C
O       0.0249   0.3084     0.75     O
O       0.1415   0.8335   0.1626     O
O       0.1415   0.8335   0.3374     O
C       0.1675   0.9631   0.0323     C
C       0.1675   0.9631   0.4677     C
C       0.1775   0.0261   0.5329     C
C       0.1775   0.0261   0.9671     C
O       0.1882   0.1555   0.6632     O
O       0.1882   0.1555   0.8368     O
V       0.2002  0.73916     0.25     V
H       0.2015   0.5425   0.0554     H
H       0.2015   0.5425   0.4446     H
H        0.217   0.4389   0.5548     H
H        0.217   0.4389   0.9452     H
H        0.283   0.9389   0.0548     H
H        0.283   0.9389   0.4452     H
H       0.2985   0.0425   0.5554     H
H       0.2985   0.0425   0.9446     H
V       0.2998  0.23916     0.75     V
O       0.3118   0.6555   0.1632     O
O       0.3118   0.6555   0.3368     O
C       0.3225   0.5261   0.0329     C
C       0.3225   0.5261   0.4671     C
C       0.3325   0.4631   0.5323     C
C       0.3325   0.4631   0.9677     C
O       0.3585   0.3335   0.6626     O
O       0.3585   0.3335   0.8374     O
O       0.4751   0.8084     0.25     O
C       0.4781   0.6333   0.1366     C
C       0.4781   0.6333   0.3634     C
C       0.4911    0.565   0.0649     C
C       0.4911    0.565   0.4351     C
C       0.5089    0.435   0.5649     C
C       0.5089    0.435   0.9351     C
C       0.5219   0.3667   0.6366     C
C       0.5219   0.3667   0.8634     C
O       0.5249   0.1916     0.75     O
O       0.6415   0.6665   0.1626     O
O       0.6415   0.6665   0.3374     O
F     0.66261537 0.07253085 0.56558269     F
F     0.66261537 0.07253085 0.93441731     F
C       0.6675   0.5369   0.0323     C
C       0.6675   0.5369   0.4677     C
C       0.6775   0.4739   0.5329     C
C       0.6775   0.4739   0.9671     C
O       0.6882   0.3445   0.6632     O
O       0.6882   0.3445   0.8368     O
V       0.7002  0.76084     0.25     V
H       0.7015   0.9575   0.0554     H
H       0.7015   0.9575   0.4446     H
H        0.783   0.5611   0.0548     H
H        0.783   0.5611   0.4452     H
V       0.7998  0.26084     0.75     V
O       0.8118   0.8445   0.1632     O
O       0.8118   0.8445   0.3368     O
C       0.8225   0.9739   0.0329     C
C       0.8225   0.9739   0.4671     C
C       0.8325   0.0369   0.5323     C
C       0.8325   0.0369   0.9677     C
F     0.85581872 0.44983796 0.56604771     F
F     0.85581872 0.44983796 0.93395229     F
O       0.8585   0.1665   0.6626     O
O       0.8585   0.1665   0.8374     O
O       0.9751   0.6916     0.25     O
C       0.9781   0.8667   0.1366     C
C       0.9781   0.8667   0.3634     C
C       0.9911    0.935   0.0649     C
C       0.9911    0.935   0.4351     C
