# generated using pymatgen
data_ZnMoH18C14(N2O)2
_symmetry_space_group_name_H-M   'P 1'
_cell_length_a   7.07000000
_cell_length_b   9.41883976
_cell_length_c   9.41883976
_cell_angle_alpha   84.88823698
_cell_angle_beta   89.15951623
_cell_angle_gamma   89.15951623
_symmetry_Int_Tables_number   1
_chemical_formula_structural   ZnMoH18C14(N2O)2
_chemical_formula_sum   'Zn1 Mo1 H18 C14 N4 O2'
_cell_volume   624.59382908
_cell_formula_units_Z   1
loop_
 _symmetry_equiv_pos_site_id
 _symmetry_equiv_pos_as_xyz
  1  'x, y, z'
loop_
 _atom_site_type_symbol
 _atom_site_label
 _atom_site_symmetry_multiplicity
 _atom_site_fract_x
 _atom_site_fract_y
 _atom_site_fract_z
 _atom_site_occupancy
  C  C0  1  0.53470000  0.80170000  0.09470000  1
  C  C1  1  0.31030000  0.10450000  0.62450000  1
  C  C2  1  0.62630000  0.10310000  0.60470000  1
  C  C3  1  0.57050000  0.77010000  0.83970000  1
  C  C4  1  0.29120000  0.13140000  0.47640000  1
  C  C5  1  0.61530000  0.12840000  0.45280000  1
  C  C6  1  0.44480000  0.13600000  0.39100000  1
  C  C7  1  0.55520000  0.60900000  0.86400000  1
  C  C8  1  0.38470000  0.54720000  0.87160000  1
  C  C9  1  0.70880000  0.52360000  0.86860000  1
  C  C10  1  0.42950000  0.16030000  0.22990000  1
  C  C11  1  0.37370000  0.39530000  0.89690000  1
  C  C12  1  0.68970000  0.37550000  0.89550000  1
  C  C13  1  0.46530000  0.90530000  0.19830000  1
  H  H14  1  0.67140000  0.79320000  0.09940000  1
  H  H15  1  0.48230000  0.70850000  0.12210000  1
  H  H16  1  0.35490000  0.82900000  0.94300000  1
  H  H17  1  0.20110000  0.09120000  0.68020000  1
  H  H18  1  0.74470000  0.09060000  0.64620000  1
  H  H19  1  0.70330000  0.79440000  0.83400000  1
  H  H20  1  0.17160000  0.14610000  0.43750000  1
  H  H21  1  0.51490000  0.80120000  0.74840000  1
  H  H22  1  0.72500000  0.13940000  0.39740000  1
  H  H23  1  0.27500000  0.60260000  0.86060000  1
  H  H24  1  0.48510000  0.25160000  0.19880000  1
  H  H25  1  0.82840000  0.56250000  0.85390000  1
  H  H26  1  0.29670000  0.16600000  0.20560000  1
  H  H27  1  0.25530000  0.35380000  0.90940000  1
  H  H28  1  0.79890000  0.31980000  0.90880000  1
  H  H29  1  0.64510000  0.05700000  0.17100000  1
  H  H30  1  0.51770000  0.87790000  0.29150000  1
  H  H31  1  0.32860000  0.90060000  0.20680000  1
  Mo  Mo32  1  0.00000000  0.00072000  0.99928000  1
  N  N33  1  0.48040000  0.84790000  0.94770000  1
  N  N34  1  0.47350000  0.09690000  0.68830000  1
  N  N35  1  0.52650000  0.31170000  0.90310000  1
  N  N36  1  0.51960000  0.05230000  0.15210000  1
  O  O37  1  0.79850000  0.05850000  0.89890000  1
  O  O38  1  0.20150000  0.10110000  0.94150000  1
  Zn  Zn39  1  0.50000000  0.08125000  0.91875000  1
