# generated using pymatgen
data_Cd2H18C21(NO4)2
_symmetry_space_group_name_H-M   'P 1'
_cell_length_a   12.00260000
_cell_length_b   14.61610000
_cell_length_c   16.82327293
_cell_angle_alpha   115.74751503
_cell_angle_beta   105.68593025
_cell_angle_gamma   90.00000000
_symmetry_Int_Tables_number   1
_chemical_formula_structural   Cd2H18C21(NO4)2
_chemical_formula_sum   'Cd8 H72 C84 N8 O32'
_cell_volume   2535.72846602
_cell_formula_units_Z   4
loop_
 _symmetry_equiv_pos_site_id
 _symmetry_equiv_pos_as_xyz
  1  'x, y, z'
loop_
 _atom_site_type_symbol
 _atom_site_label
 _atom_site_symmetry_multiplicity
 _atom_site_fract_x
 _atom_site_fract_y
 _atom_site_fract_z
 _atom_site_occupancy
  Cd  Cd0  1  0.93133000  0.25728000  0.43176000  1
  Cd  Cd1  1  0.82755000  0.51388000  0.35322000  1
  Cd  Cd2  1  0.67245000  0.16066000  0.64678000  1
  Cd  Cd3  1  0.56867000  0.82552000  0.56824000  1
  Cd  Cd4  1  0.43133000  0.17448000  0.43176000  1
  Cd  Cd5  1  0.32755000  0.83934000  0.35322000  1
  Cd  Cd6  1  0.17245000  0.48612000  0.64678000  1
  Cd  Cd7  1  0.06867000  0.74272000  0.56824000  1
  H  H8  1  0.99660000  0.32410000  0.96600000  1
  H  H9  1  0.97520000  0.71520000  0.90600000  1
  H  H10  1  0.96180000  0.92350000  0.99760000  1
  H  H11  1  0.96090000  0.90920000  0.83300000  1
  H  H12  1  0.93840000  0.19790000  0.08520000  1
  H  H13  1  0.92060000  0.95290000  0.42920000  1
  H  H14  1  0.92060000  0.04300000  0.26500000  1
  H  H15  1  0.88910000  0.30060000  0.82040000  1
  H  H16  1  0.87530000  0.83650000  0.98800000  1
  H  H17  1  0.83750000  0.89680000  0.69820000  1
  H  H18  1  0.83470000  0.04160000  0.53600000  1
  H  H19  1  0.82930000  0.82800000  0.29100000  1
  H  H20  1  0.82520000  0.63850000  0.73360000  1
  H  H21  1  0.81000000  0.28470000  0.21360000  1
  H  H22  1  0.80370000  0.91600000  0.12800000  1
  H  H23  1  0.79380000  0.08560000  0.92920000  1
  H  H24  1  0.76700000  0.03880000  0.39580000  1
  H  H25  1  0.76400000  0.77090000  0.32980000  1
  H  H26  1  0.73600000  0.44110000  0.67020000  1
  H  H27  1  0.73300000  0.64300000  0.60420000  1
  H  H28  1  0.70620000  0.15640000  0.07080000  1
  H  H29  1  0.69630000  0.78800000  0.87200000  1
  H  H30  1  0.69000000  0.07110000  0.78640000  1
  H  H31  1  0.67480000  0.90490000  0.26640000  1
  H  H32  1  0.67070000  0.53700000  0.70900000  1
  H  H33  1  0.66530000  0.50560000  0.46400000  1
  H  H34  1  0.66250000  0.19860000  0.30180000  1
  H  H35  1  0.62470000  0.84850000  0.01200000  1
  H  H36  1  0.61090000  0.48020000  0.17960000  1
  H  H37  1  0.57940000  0.77800000  0.73500000  1
  H  H38  1  0.57940000  0.52370000  0.57080000  1
  H  H39  1  0.56160000  0.11270000  0.91480000  1
  H  H40  1  0.53910000  0.07620000  0.16700000  1
  H  H41  1  0.53820000  0.92590000  0.00240000  1
  H  H42  1  0.52480000  0.80920000  0.09400000  1
  H  H43  1  0.50340000  0.35810000  0.03400000  1
  H  H44  1  0.49660000  0.64190000  0.96600000  1
  H  H45  1  0.47520000  0.19080000  0.90600000  1
  H  H46  1  0.46180000  0.07410000  0.99760000  1
  H  H47  1  0.46090000  0.92380000  0.83300000  1
  H  H48  1  0.43840000  0.88730000  0.08520000  1
  H  H49  1  0.42060000  0.47630000  0.42920000  1
  H  H50  1  0.42060000  0.22200000  0.26500000  1
  H  H51  1  0.38910000  0.51980000  0.82040000  1
  H  H52  1  0.37530000  0.15150000  0.98800000  1
  H  H53  1  0.33750000  0.80140000  0.69820000  1
  H  H54  1  0.33470000  0.49440000  0.53600000  1
  H  H55  1  0.32930000  0.46300000  0.29100000  1
  H  H56  1  0.32520000  0.09510000  0.73360000  1
  H  H57  1  0.31000000  0.92890000  0.21360000  1
  H  H58  1  0.30370000  0.21200000  0.12800000  1
  H  H59  1  0.29380000  0.84360000  0.92920000  1
  H  H60  1  0.26700000  0.35700000  0.39580000  1
  H  H61  1  0.26400000  0.55890000  0.32980000  1
  H  H62  1  0.23600000  0.22910000  0.67020000  1
  H  H63  1  0.23300000  0.96120000  0.60420000  1
  H  H64  1  0.20620000  0.91440000  0.07080000  1
  H  H65  1  0.19630000  0.08400000  0.87200000  1
  H  H66  1  0.19000000  0.71530000  0.78640000  1
  H  H67  1  0.17480000  0.36150000  0.26640000  1
  H  H68  1  0.17070000  0.17200000  0.70900000  1
  H  H69  1  0.16530000  0.95840000  0.46400000  1
  H  H70  1  0.16250000  0.10320000  0.30180000  1
  H  H71  1  0.12470000  0.16350000  0.01200000  1
  H  H72  1  0.11090000  0.69940000  0.17960000  1
  H  H73  1  0.07940000  0.95700000  0.73500000  1
  H  H74  1  0.07940000  0.04710000  0.57080000  1
  H  H75  1  0.06160000  0.80210000  0.91480000  1
  H  H76  1  0.03910000  0.09080000  0.16700000  1
  H  H77  1  0.03820000  0.07650000  0.00240000  1
  H  H78  1  0.02480000  0.28480000  0.09400000  1
  H  H79  1  0.00340000  0.67590000  0.03400000  1
  C  C80  1  0.98730000  0.21460000  0.05460000  1
  C  C81  1  0.94140000  0.85460000  0.48560000  1
  C  C82  1  0.93570000  0.27030000  0.93020000  1
  C  C83  1  0.93290000  0.52800000  0.69540000  1
  C  C84  1  0.92350000  0.85370000  0.95720000  1
  C  C85  1  0.91110000  0.20620000  0.96240000  1
  C  C86  1  0.88880000  0.64410000  0.58280000  1
  C  C87  1  0.88310000  0.88190000  0.81500000  1
  C  C88  1  0.86910000  0.25630000  0.84220000  1
  C  C89  1  0.86620000  0.90820000  0.43540000  1
  C  C90  1  0.84590000  0.84990000  0.86940000  1
  C  C91  1  0.84250000  0.05000000  0.24460000  1
  C  C92  1  0.81900000  0.57326000  0.67912000  1
  C  C93  1  0.81560000  0.13010000  0.90820000  1
  C  C94  1  0.80820000  0.87470000  0.73360000  1
  C  C95  1  0.78810000  0.83750000  0.33580000  1
  C  C96  1  0.78790000  0.59263000  0.59306000  1
  C  C97  1  0.78740000  0.97780000  0.48600000  1
  C  C98  1  0.78060000  0.40350000  0.47480000  1
  C  C99  1  0.77230000  0.97280000  0.16220000  1
  C  C100  1  0.75350000  0.12220000  0.82220000  1
  C  C101  1  0.74650000  0.30000000  0.17780000  1
  C  C102  1  0.72770000  0.81060000  0.83780000  1
  C  C103  1  0.71940000  0.92870000  0.52520000  1
  C  C104  1  0.71260000  0.49180000  0.51400000  1
  C  C105  1  0.71210000  0.99957000  0.40694000  1
  C  C106  1  0.71190000  0.50170000  0.66420000  1
  C  C107  1  0.69180000  0.14110000  0.26640000  1
  C  C108  1  0.68440000  0.22190000  0.09180000  1
  C  C109  1  0.68100000  0.89414000  0.32088000  1
  C  C110  1  0.65750000  0.80540000  0.75540000  1
  C  C111  1  0.65410000  0.98050000  0.13060000  1
  C  C112  1  0.63380000  0.47280000  0.56460000  1
  C  C113  1  0.63090000  0.41410000  0.15780000  1
  C  C114  1  0.61690000  0.06690000  0.18500000  1
  C  C115  1  0.61120000  0.06130000  0.41720000  1
  C  C116  1  0.58890000  0.24380000  0.03760000  1
  C  C117  1  0.57650000  0.89650000  0.04280000  1
  C  C118  1  0.56710000  0.83260000  0.30460000  1
  C  C119  1  0.56430000  0.34010000  0.06980000  1
  C  C120  1  0.55860000  0.36900000  0.51440000  1
  C  C121  1  0.51270000  0.16000000  0.94540000  1
  C  C122  1  0.48730000  0.84000000  0.05460000  1
  C  C123  1  0.44140000  0.63100000  0.48560000  1
  C  C124  1  0.43570000  0.65990000  0.93020000  1
  C  C125  1  0.43290000  0.16740000  0.69540000  1
  C  C126  1  0.42350000  0.10350000  0.95720000  1
  C  C127  1  0.41110000  0.75620000  0.96240000  1
  C  C128  1  0.38880000  0.93870000  0.58280000  1
  C  C129  1  0.38310000  0.93310000  0.81500000  1
  C  C130  1  0.36910000  0.58590000  0.84220000  1
  C  C131  1  0.36620000  0.52720000  0.43540000  1
  C  C132  1  0.34590000  0.01950000  0.86940000  1
  C  C133  1  0.34250000  0.19460000  0.24460000  1
  C  C134  1  0.31900000  0.10586000  0.67912000  1
  C  C135  1  0.31560000  0.77810000  0.90820000  1
  C  C136  1  0.30820000  0.85890000  0.73360000  1
  C  C137  1  0.28810000  0.49830000  0.33580000  1
  C  C138  1  0.28790000  0.00043000  0.59306000  1
  C  C139  1  0.28740000  0.50820000  0.48600000  1
  C  C140  1  0.28060000  0.07130000  0.47480000  1
  C  C141  1  0.27230000  0.18940000  0.16220000  1
  C  C142  1  0.25350000  0.70000000  0.82220000  1
  C  C143  1  0.24650000  0.87780000  0.17780000  1
  C  C144  1  0.22770000  0.02720000  0.83780000  1
  C  C145  1  0.21940000  0.59650000  0.52520000  1
  C  C146  1  0.21260000  0.02220000  0.51400000  1
  C  C147  1  0.21210000  0.40737000  0.40694000  1
  C  C148  1  0.21190000  0.16250000  0.66420000  1
  C  C149  1  0.19180000  0.12530000  0.26640000  1
  C  C150  1  0.18440000  0.86990000  0.09180000  1
  C  C151  1  0.18100000  0.42674000  0.32088000  1
  C  C152  1  0.15750000  0.95000000  0.75540000  1
  C  C153  1  0.15410000  0.15010000  0.13060000  1
  C  C154  1  0.13380000  0.09180000  0.56460000  1
  C  C155  1  0.13090000  0.74370000  0.15780000  1
  C  C156  1  0.11690000  0.11810000  0.18500000  1
  C  C157  1  0.11120000  0.35590000  0.41720000  1
  C  C158  1  0.08890000  0.79380000  0.03760000  1
  C  C159  1  0.07650000  0.14630000  0.04280000  1
  C  C160  1  0.06710000  0.47200000  0.30460000  1
  C  C161  1  0.06430000  0.72970000  0.06980000  1
  C  C162  1  0.05860000  0.14540000  0.51440000  1
  C  C163  1  0.01270000  0.78540000  0.94540000  1
  N  N164  1  0.80390000  0.13354000  0.29608000  1
  N  N165  1  0.77960000  0.18350000  0.78880000  1
  N  N166  1  0.72040000  0.39470000  0.21120000  1
  N  N167  1  0.69610000  0.83746000  0.70392000  1
  N  N168  1  0.30390000  0.16254000  0.29608000  1
  N  N169  1  0.27960000  0.60530000  0.78880000  1
  N  N170  1  0.22040000  0.81650000  0.21120000  1
  N  N171  1  0.19610000  0.86646000  0.70392000  1
  O  O172  1  0.99070000  0.51576000  0.64072000  1
  O  O173  1  0.98410000  0.77638000  0.43916000  1
  O  O174  1  0.96490000  0.88894000  0.57048000  1
  O  O175  1  0.96150000  0.50756000  0.76192000  1
  O  O176  1  0.95710000  0.71493000  0.65306000  1
  O  O177  1  0.90040000  0.62128000  0.50336000  1
  O  O178  1  0.81350000  0.39225000  0.40590000  1
  O  O179  1  0.80220000  0.34208000  0.50936000  1
  O  O180  1  0.69780000  0.83272000  0.49064000  1
  O  O181  1  0.68650000  0.98635000  0.59410000  1
  O  O182  1  0.59960000  0.11792000  0.49664000  1
  O  O183  1  0.54290000  0.06187000  0.34694000  1
  O  O184  1  0.53850000  0.74564000  0.23808000  1
  O  O185  1  0.53510000  0.31846000  0.42952000  1
  O  O186  1  0.51590000  0.33722000  0.56084000  1
  O  O187  1  0.50930000  0.87504000  0.35928000  1
  O  O188  1  0.49070000  0.12496000  0.64072000  1
  O  O189  1  0.48410000  0.66278000  0.43916000  1
  O  O190  1  0.46490000  0.68154000  0.57048000  1
  O  O191  1  0.46150000  0.25436000  0.76192000  1
  O  O192  1  0.45710000  0.93813000  0.65306000  1
  O  O193  1  0.40040000  0.88208000  0.50336000  1
  O  O194  1  0.31350000  0.01365000  0.40590000  1
  O  O195  1  0.30220000  0.16728000  0.50936000  1
  O  O196  1  0.19780000  0.65792000  0.49064000  1
  O  O197  1  0.18650000  0.60775000  0.59410000  1
  O  O198  1  0.09960000  0.37872000  0.49664000  1
  O  O199  1  0.04290000  0.28507000  0.34694000  1
  O  O200  1  0.03850000  0.49244000  0.23808000  1
  O  O201  1  0.03510000  0.11106000  0.42952000  1
  O  O202  1  0.01590000  0.22362000  0.56084000  1
  O  O203  1  0.00930000  0.48424000  0.35928000  1
