# generated using pymatgen
data_NiH4C7O5
_symmetry_space_group_name_H-M   'P 1'
_cell_length_a   8.80790000
_cell_length_b   8.80790000
_cell_length_c   21.16630000
_cell_angle_alpha   90.00000000
_cell_angle_beta   90.00000000
_cell_angle_gamma   120.00000000
_symmetry_Int_Tables_number   1
_chemical_formula_structural   NiH4C7O5
_chemical_formula_sum   'Ni6 H24 C42 O30'
_cell_volume   1422.06788753
_cell_formula_units_Z   6
loop_
 _symmetry_equiv_pos_site_id
 _symmetry_equiv_pos_as_xyz
  1  'x, y, z'
loop_
 _atom_site_type_symbol
 _atom_site_label
 _atom_site_symmetry_multiplicity
 _atom_site_fract_x
 _atom_site_fract_y
 _atom_site_fract_z
 _atom_site_occupancy
  Ni  Ni0  1  0.98102000  0.03473000  0.91718000  1
  Ni  Ni1  1  0.96527000  0.94629000  0.25052000  1
  Ni  Ni2  1  0.94629000  0.96527000  0.74948000  1
  Ni  Ni3  1  0.05371000  0.01898000  0.58385000  1
  Ni  Ni4  1  0.03473000  0.98102000  0.08282000  1
  Ni  Ni5  1  0.01898000  0.05371000  0.41615000  1
  H  H6  1  0.92210000  0.39000000  0.25873000  1
  H  H7  1  0.89620000  0.40740000  0.75547000  1
  H  H8  1  0.88400000  0.63000000  0.30573000  1
  H  H9  1  0.85000000  0.63600000  0.79977000  1
  H  H10  1  0.78600000  0.15000000  0.46643000  1
  H  H11  1  0.74600000  0.11600000  0.97240000  1
  H  H12  1  0.63600000  0.85000000  0.20023000  1
  H  H13  1  0.63000000  0.88400000  0.69427000  1
  H  H14  1  0.61000000  0.53210000  0.59207000  1
  H  H15  1  0.59260000  0.48880000  0.08880000  1
  H  H16  1  0.53210000  0.61000000  0.40793000  1
  H  H17  1  0.51120000  0.10380000  0.42213000  1
  H  H18  1  0.48880000  0.59260000  0.91120000  1
  H  H19  1  0.46790000  0.07790000  0.92540000  1
  H  H20  1  0.40740000  0.89620000  0.24453000  1
  H  H21  1  0.39000000  0.92210000  0.74127000  1
  H  H22  1  0.37000000  0.25400000  0.63907000  1
  H  H23  1  0.36400000  0.21400000  0.13310000  1
  H  H24  1  0.25400000  0.37000000  0.36093000  1
  H  H25  1  0.21400000  0.36400000  0.86690000  1
  H  H26  1  0.15000000  0.78600000  0.53357000  1
  H  H27  1  0.11600000  0.74600000  0.02760000  1
  H  H28  1  0.10380000  0.51120000  0.57787000  1
  H  H29  1  0.07790000  0.46790000  0.07460000  1
  C  C30  1  0.00000000  0.23660000  0.16667000  1
  C  C31  1  0.00000000  0.26700000  0.66666667  1
  C  C32  1  0.00000000  0.40560000  0.16667000  1
  C  C33  1  0.00000000  0.43540000  0.66666667  1
  C  C34  1  0.00000000  0.72050000  0.16667000  1
  C  C35  1  0.00000000  0.75080000  0.66666667  1
  C  C36  1  0.95230000  0.45940000  0.22152000  1
  C  C37  1  0.94960000  0.61570000  0.22098000  1
  C  C38  1  0.93700000  0.48170000  0.71953000  1
  C  C39  1  0.93530000  0.63760000  0.71847000  1
  C  C40  1  0.76340000  0.76340000  0.50000000  1
  C  C41  1  0.75080000  0.00000000  0.33333333  1
  C  C42  1  0.73300000  0.73300000  0.00000000  1
  C  C43  1  0.72050000  0.00000000  0.83333000  1
  C  C44  1  0.70230000  0.06470000  0.38513000  1
  C  C45  1  0.66610000  0.05040000  0.88765000  1
  C  C46  1  0.63760000  0.93530000  0.28153000  1
  C  C47  1  0.61570000  0.94960000  0.77902000  1
  C  C48  1  0.59440000  0.59440000  0.50000000  1
  C  C49  1  0.56460000  0.56460000  0.00000000  1
  C  C50  1  0.54470000  0.06300000  0.38619000  1
  C  C51  1  0.54060000  0.49290000  0.55486000  1
  C  C52  1  0.51830000  0.45530000  0.05286000  1
  C  C53  1  0.50710000  0.04770000  0.88819000  1
  C  C54  1  0.49290000  0.54060000  0.44514000  1
  C  C55  1  0.48170000  0.93700000  0.28047000  1
  C  C56  1  0.45940000  0.95230000  0.77848000  1
  C  C57  1  0.45530000  0.51830000  0.94714000  1
  C  C58  1  0.43540000  0.00000000  0.33333333  1
  C  C59  1  0.40560000  0.00000000  0.83333000  1
  C  C60  1  0.38430000  0.33390000  0.55432000  1
  C  C61  1  0.36240000  0.29770000  0.05180000  1
  C  C62  1  0.33390000  0.38430000  0.44568000  1
  C  C63  1  0.29770000  0.36240000  0.94820000  1
  C  C64  1  0.27950000  0.27950000  0.50000000  1
  C  C65  1  0.26700000  0.00000000  0.33333333  1
  C  C66  1  0.24920000  0.24920000  0.00000000  1
  C  C67  1  0.23660000  0.00000000  0.83333000  1
  C  C68  1  0.06470000  0.70230000  0.61487000  1
  C  C69  1  0.06300000  0.54470000  0.61381000  1
  C  C70  1  0.05040000  0.66610000  0.11235000  1
  C  C71  1  0.04770000  0.50710000  0.11181000  1
  O  O72  1  0.00000000  0.87140000  0.16667000  1
  O  O73  1  0.00000000  0.90140000  0.66666667  1
  O  O74  1  0.97450000  0.18870000  0.61402000  1
  O  O75  1  0.96070000  0.15200000  0.11524000  1
  O  O76  1  0.90140000  0.00000000  0.33333333  1
  O  O77  1  0.89790000  0.68080000  0.27011000  1
  O  O78  1  0.87140000  0.00000000  0.83333000  1
  O  O79  1  0.87010000  0.69650000  0.76586000  1
  O  O80  1  0.84800000  0.80870000  0.44857000  1
  O  O81  1  0.82640000  0.12990000  0.43252000  1
  O  O82  1  0.81130000  0.78580000  0.94735000  1
  O  O83  1  0.80870000  0.84800000  0.55143000  1
  O  O84  1  0.78580000  0.81130000  0.05265000  1
  O  O85  1  0.78290000  0.10210000  0.93678000  1
  O  O86  1  0.69650000  0.87010000  0.23414000  1
  O  O87  1  0.68080000  0.89790000  0.72989000  1
  O  O88  1  0.31920000  0.21710000  0.60345000  1
  O  O89  1  0.30350000  0.17360000  0.09919000  1
  O  O90  1  0.21710000  0.31920000  0.39655000  1
  O  O91  1  0.21420000  0.02550000  0.28068000  1
  O  O92  1  0.19130000  0.03930000  0.78191000  1
  O  O93  1  0.18870000  0.97450000  0.38598000  1
  O  O94  1  0.17360000  0.30350000  0.90081000  1
  O  O95  1  0.15200000  0.96070000  0.88476000  1
  O  O96  1  0.12990000  0.82640000  0.56748000  1
  O  O97  1  0.12860000  0.12860000  0.50000000  1
  O  O98  1  0.10210000  0.78290000  0.06322000  1
  O  O99  1  0.09860000  0.09860000  0.00000000  1
  O  O100  1  0.03930000  0.19130000  0.21809000  1
  O  O101  1  0.02550000  0.21420000  0.71932000  1
