# generated using pymatgen
data_FeAg2H8(C2N)8
_symmetry_space_group_name_H-M   'P 1'
_cell_length_a   10.20720000
_cell_length_b   15.88912004
_cell_length_c   15.88912004
_cell_angle_alpha   115.54500799
_cell_angle_beta   102.36472289
_cell_angle_gamma   102.36472289
_symmetry_Int_Tables_number   1
_chemical_formula_structural   FeAg2H8(C2N)8
_chemical_formula_sum   'Fe3 Ag6 H24 C48 N24'
_cell_volume   2129.37464883
_cell_formula_units_Z   3
loop_
 _symmetry_equiv_pos_site_id
 _symmetry_equiv_pos_as_xyz
  1  'x, y, z'
loop_
 _atom_site_type_symbol
 _atom_site_label
 _atom_site_symmetry_multiplicity
 _atom_site_fract_x
 _atom_site_fract_y
 _atom_site_fract_z
 _atom_site_occupancy
  Ag  Ag0  1  0.00000000  0.70185000  0.29815000  1
  Ag  Ag1  1  1.00000000  0.29815000  0.70185000  1
  Ag  Ag2  1  0.70185000  0.70185000  0.40370000  1
  Ag  Ag3  1  0.70185000  0.40370000  0.70185000  1
  Ag  Ag4  1  0.29815000  0.59630000  0.29815000  1
  Ag  Ag5  1  0.29815000  0.29815000  0.59630000  1
  C  C6  1  0.79880000  0.60700000  0.42120000  1
  C  C7  1  0.79880000  0.42120000  0.60700000  1
  C  C8  1  0.36915000  0.00000000  0.08465000  1
  C  C9  1  0.36915000  0.08465000  1.00000000  1
  C  C10  1  0.37400000  0.91230000  0.18120000  1
  C  C11  1  0.37400000  0.18120000  0.91230000  1
  C  C12  1  0.71550000  0.08465000  0.08465000  1
  C  C13  1  0.40055000  1.00000000  0.17795000  1
  C  C14  1  0.40055000  0.17795000  0.00000000  1
  C  C15  1  0.40540000  0.91540000  0.27140000  1
  C  C16  1  0.40540000  0.27140000  0.91540000  1
  C  C17  1  0.19180000  0.81420000  0.39300000  1
  C  C18  1  0.19180000  0.39300000  0.81420000  1
  C  C19  1  0.62240000  0.81420000  0.42120000  1
  C  C20  1  0.62240000  0.42120000  0.81420000  1
  C  C21  1  0.77740000  0.17795000  0.17795000  1
  C  C22  1  0.46170000  0.08770000  0.26890000  1
  C  C23  1  0.46170000  0.26890000  0.08770000  1
  C  C24  1  0.13400000  0.72860000  0.64400000  1
  C  C25  1  0.13400000  0.64400000  0.72860000  1
  C  C26  1  0.49000000  0.08460000  0.35600000  1
  C  C27  1  0.49000000  0.35600000  0.08460000  1
  C  C28  1  0.80720000  0.26890000  0.18120000  1
  C  C29  1  0.80720000  0.18120000  0.26890000  1
  C  C30  1  0.19280000  0.81880000  0.73110000  1
  C  C31  1  0.19280000  0.73110000  0.81880000  1
  C  C32  1  0.51000000  0.91540000  0.64400000  1
  C  C33  1  0.51000000  0.64400000  0.91540000  1
  C  C34  1  0.86600000  0.35600000  0.27140000  1
  C  C35  1  0.86600000  0.27140000  0.35600000  1
  C  C36  1  0.53830000  0.91230000  0.73110000  1
  C  C37  1  0.53830000  0.73110000  0.91230000  1
  C  C38  1  0.22260000  0.82205000  0.82205000  1
  C  C39  1  0.37760000  0.18580000  0.57880000  1
  C  C40  1  0.37760000  0.57880000  0.18580000  1
  C  C41  1  0.80820000  0.18580000  0.60700000  1
  C  C42  1  0.80820000  0.60700000  0.18580000  1
  C  C43  1  0.59460000  0.08460000  0.72860000  1
  C  C44  1  0.59460000  0.72860000  0.08460000  1
  C  C45  1  0.59945000  1.00000000  0.82205000  1
  C  C46  1  0.59945000  0.82205000  1.00000000  1
  C  C47  1  0.28450000  0.91535000  0.91535000  1
  C  C48  1  0.62600000  0.08770000  0.81880000  1
  C  C49  1  0.62600000  0.81880000  0.08770000  1
  C  C50  1  0.63085000  0.00000000  0.91535000  1
  C  C51  1  0.63085000  0.91535000  0.00000000  1
  C  C52  1  0.20120000  0.57880000  0.39300000  1
  C  C53  1  0.20120000  0.39300000  0.57880000  1
  Fe  Fe54  1  0.00000000  0.50000000  0.50000000  1
  Fe  Fe55  1  0.50000000  1.00000000  0.50000000  1
  Fe  Fe56  1  0.50000000  0.50000000  0.00000000  1
  H  H57  1  0.66510000  0.87750000  0.14870000  1
  H  H58  1  0.66510000  0.14870000  0.87750000  1
  H  H59  1  0.38550000  0.85570000  0.27170000  1
  H  H60  1  0.38550000  0.27170000  0.85570000  1
  H  H61  1  0.11380000  0.72830000  0.58400000  1
  H  H62  1  0.11380000  0.58400000  0.72830000  1
  H  H63  1  0.78760000  0.12250000  0.27120000  1
  H  H64  1  0.78760000  0.27120000  0.12250000  1
  H  H65  1  0.48360000  0.27120000  0.14870000  1
  H  H66  1  0.48360000  0.14870000  0.27120000  1
  H  H67  1  0.47020000  0.85570000  0.58400000  1
  H  H68  1  0.47020000  0.58400000  0.85570000  1
  H  H69  1  0.52980000  0.14430000  0.41600000  1
  H  H70  1  0.52980000  0.41600000  0.14430000  1
  H  H71  1  0.51640000  0.85130000  0.72880000  1
  H  H72  1  0.51640000  0.72880000  0.85130000  1
  H  H73  1  0.21240000  0.87750000  0.72880000  1
  H  H74  1  0.21240000  0.72880000  0.87750000  1
  H  H75  1  0.88620000  0.41600000  0.27170000  1
  H  H76  1  0.88620000  0.27170000  0.41600000  1
  H  H77  1  0.61450000  0.14430000  0.72830000  1
  H  H78  1  0.61450000  0.72830000  0.14430000  1
  H  H79  1  0.33490000  0.12250000  0.85130000  1
  H  H80  1  0.33490000  0.85130000  0.12250000  1
  N  N81  1  0.85890000  0.56200000  0.44370000  1
  N  N82  1  0.85890000  0.44370000  0.56200000  1
  N  N83  1  0.69018000  0.00000000  0.08794000  1
  N  N84  1  0.69018000  0.08794000  0.00000000  1
  N  N85  1  0.39776000  0.08794000  0.08794000  1
  N  N86  1  0.10490000  0.64205000  0.64205000  1
  N  N87  1  0.29690000  0.88170000  0.43800000  1
  N  N88  1  0.29690000  0.43800000  0.88170000  1
  N  N89  1  0.58480000  0.88170000  0.44370000  1
  N  N90  1  0.58480000  0.44370000  0.88170000  1
  N  N91  1  0.46285000  0.00000000  0.35795000  1
  N  N92  1  0.46285000  0.35795000  0.00000000  1
  N  N93  1  0.53715000  0.00000000  0.64205000  1
  N  N94  1  0.53715000  0.64205000  0.00000000  1
  N  N95  1  0.41520000  0.11830000  0.55630000  1
  N  N96  1  0.41520000  0.55630000  0.11830000  1
  N  N97  1  0.70310000  0.11830000  0.56200000  1
  N  N98  1  0.70310000  0.56200000  0.11830000  1
  N  N99  1  0.89510000  0.35795000  0.35795000  1
  N  N100  1  0.60224000  0.91206000  0.91206000  1
  N  N101  1  0.30982000  1.00000000  0.91206000  1
  N  N102  1  0.30982000  0.91206000  0.00000000  1
  N  N103  1  0.14110000  0.55630000  0.43800000  1
  N  N104  1  0.14110000  0.43800000  0.55630000  1
