# generated using pymatgen
data_Ag3H12(C2N5)2
_symmetry_space_group_name_H-M   'P 1'
_cell_length_a   3.44960000
_cell_length_b   21.00201265
_cell_length_c   21.00201265
_cell_angle_alpha   89.61356044
_cell_angle_beta   85.28925212
_cell_angle_gamma   85.28925212
_symmetry_Int_Tables_number   1
_chemical_formula_structural   Ag3H12(C2N5)2
_chemical_formula_sum   'Ag12 H48 C16 N40'
_cell_volume   1511.30287788
_cell_formula_units_Z   4
loop_
 _symmetry_equiv_pos_site_id
 _symmetry_equiv_pos_as_xyz
  1  'x, y, z'
loop_
 _atom_site_type_symbol
 _atom_site_label
 _atom_site_symmetry_multiplicity
 _atom_site_fract_x
 _atom_site_fract_y
 _atom_site_fract_z
 _atom_site_occupancy
  Ag  Ag0  1  0.00000000  0.00000000  0.00000000  1
  Ag  Ag1  1  1.00000000  0.50000000  0.50000000  1
  Ag  Ag2  1  0.68539000  0.75000000  0.12922000  1
  Ag  Ag3  1  0.68539000  0.62922000  0.25000000  1
  Ag  Ag4  1  0.43539000  0.25000000  0.62922000  1
  Ag  Ag5  1  0.43539000  0.12922000  0.75000000  1
  Ag  Ag6  1  0.50000000  0.50000000  1.00000000  1
  Ag  Ag7  1  0.00000000  0.00000000  0.50000000  1
  Ag  Ag8  1  0.31461000  0.37078000  0.75000000  1
  Ag  Ag9  1  0.31461000  0.25000000  0.87078000  1
  Ag  Ag10  1  0.56461000  0.87078000  0.25000000  1
  Ag  Ag11  1  0.56461000  0.75000000  0.37078000  1
  C  C12  1  0.33270000  0.87194000  0.05726000  1
  C  C13  1  0.33270000  0.55726000  0.37194000  1
  C  C14  1  0.73810000  0.37194000  0.55726000  1
  C  C15  1  0.73810000  0.05726000  0.87194000  1
  C  C16  1  0.11004000  0.62806000  0.05726000  1
  C  C17  1  0.11004000  0.55726000  0.12806000  1
  C  C18  1  0.20464000  0.12806000  0.55726000  1
  C  C19  1  0.20464000  0.05726000  0.62806000  1
  C  C20  1  0.88996000  0.44274000  0.87194000  1
  C  C21  1  0.88996000  0.37194000  0.94274000  1
  C  C22  1  0.79536000  0.94274000  0.37194000  1
  C  C23  1  0.79536000  0.87194000  0.44274000  1
  C  C24  1  0.66730000  0.44274000  0.62806000  1
  C  C25  1  0.66730000  0.12806000  0.94274000  1
  C  C26  1  0.26190000  0.94274000  0.12806000  1
  C  C27  1  0.26190000  0.62806000  0.44274000  1
  H  H28  1  0.33470000  0.85070000  0.01690000  1
  H  H29  1  0.33470000  0.51690000  0.35070000  1
  H  H30  1  0.79770000  0.35070000  0.51690000  1
  H  H31  1  0.79770000  0.01690000  0.85070000  1
  H  H32  1  0.26820000  0.85440000  0.96280000  1
  H  H33  1  0.26820000  0.46280000  0.35440000  1
  H  H34  1  0.91460000  0.35440000  0.46280000  1
  H  H35  1  0.91460000  0.96280000  0.85440000  1
  H  H36  1  0.42210000  0.79560000  0.99560000  1
  H  H37  1  0.42210000  0.49560000  0.29560000  1
  H  H38  1  0.78670000  0.29560000  0.49560000  1
  H  H39  1  0.78670000  0.99560000  0.79560000  1
  H  H40  1  0.08230000  0.70440000  0.99560000  1
  H  H41  1  0.08230000  0.49560000  0.20440000  1
  H  H42  1  0.21770000  0.20440000  0.49560000  1
  H  H43  1  0.21770000  0.99560000  0.70440000  1
  H  H44  1  0.14840000  0.64930000  0.01690000  1
  H  H45  1  0.14840000  0.51690000  0.14930000  1
  H  H46  1  0.18540000  0.14930000  0.51690000  1
  H  H47  1  0.18540000  0.01690000  0.64930000  1
  H  H48  1  0.26900000  0.64560000  0.96280000  1
  H  H49  1  0.26900000  0.46280000  0.14560000  1
  H  H50  1  0.12260000  0.14560000  0.46280000  1
  H  H51  1  0.12260000  0.96280000  0.64560000  1
  H  H52  1  0.73100000  0.53720000  0.85440000  1
  H  H53  1  0.73100000  0.35440000  0.03720000  1
  H  H54  1  0.87740000  0.03720000  0.35440000  1
  H  H55  1  0.87740000  0.85440000  0.53720000  1
  H  H56  1  0.85160000  0.48310000  0.85070000  1
  H  H57  1  0.85160000  0.35070000  0.98310000  1
  H  H58  1  0.81460000  0.98310000  0.35070000  1
  H  H59  1  0.81460000  0.85070000  0.48310000  1
  H  H60  1  0.91770000  0.50440000  0.79560000  1
  H  H61  1  0.91770000  0.29560000  0.00440000  1
  H  H62  1  0.78230000  0.00440000  0.29560000  1
  H  H63  1  0.78230000  0.79560000  0.50440000  1
  H  H64  1  0.57790000  0.50440000  0.70440000  1
  H  H65  1  0.57790000  0.20440000  0.00440000  1
  H  H66  1  0.21330000  0.00440000  0.20440000  1
  H  H67  1  0.21330000  0.70440000  0.50440000  1
  H  H68  1  0.73180000  0.53720000  0.64560000  1
  H  H69  1  0.73180000  0.14560000  0.03720000  1
  H  H70  1  0.08540000  0.03720000  0.14560000  1
  H  H71  1  0.08540000  0.64560000  0.53720000  1
  H  H72  1  0.66530000  0.48310000  0.64930000  1
  H  H73  1  0.66530000  0.14930000  0.98310000  1
  H  H74  1  0.20230000  0.98310000  0.14930000  1
  H  H75  1  0.20230000  0.64930000  0.48310000  1
  N  N76  1  0.21600000  0.93350000  0.06650000  1
  N  N77  1  0.21600000  0.56650000  0.43350000  1
  N  N78  1  0.78400000  0.43350000  0.56650000  1
  N  N79  1  0.78400000  0.06650000  0.93350000  1
  N  N80  1  0.44653000  0.84343000  0.11011000  1
  N  N81  1  0.44653000  0.61011000  0.34343000  1
  N  N82  1  0.59993000  0.34343000  0.61011000  1
  N  N83  1  0.59993000  0.11011000  0.84343000  1
  N  N84  1  0.34290000  0.83550000  0.99670000  1
  N  N85  1  0.34290000  0.49670000  0.33550000  1
  N  N86  1  0.82490000  0.33550000  0.49670000  1
  N  N87  1  0.82490000  0.99670000  0.83550000  1
  N  N88  1  0.94336000  0.65657000  0.11011000  1
  N  N89  1  0.94336000  0.61011000  0.15657000  1
  N  N90  1  0.28996000  0.15657000  0.61011000  1
  N  N91  1  0.28996000  0.11011000  0.65657000  1
  N  N92  1  0.16040000  0.66450000  0.99670000  1
  N  N93  1  0.16040000  0.49670000  0.16450000  1
  N  N94  1  0.17840000  0.16450000  0.49670000  1
  N  N95  1  0.17840000  0.99670000  0.66450000  1
  N  N96  1  0.21750000  0.56650000  0.06650000  1
  N  N97  1  0.14950000  0.06650000  0.56650000  1
  N  N98  1  0.78250000  0.43350000  0.93350000  1
  N  N99  1  0.85050000  0.93350000  0.43350000  1
  N  N100  1  0.83960000  0.50330000  0.83550000  1
  N  N101  1  0.83960000  0.33550000  0.00330000  1
  N  N102  1  0.82160000  0.00330000  0.33550000  1
  N  N103  1  0.82160000  0.83550000  0.50330000  1
  N  N104  1  0.05664000  0.38989000  0.84343000  1
  N  N105  1  0.05664000  0.34343000  0.88989000  1
  N  N106  1  0.71004000  0.88989000  0.34343000  1
  N  N107  1  0.71004000  0.84343000  0.38989000  1
  N  N108  1  0.65710000  0.50330000  0.66450000  1
  N  N109  1  0.65710000  0.16450000  0.00330000  1
  N  N110  1  0.17510000  0.00330000  0.16450000  1
  N  N111  1  0.17510000  0.66450000  0.50330000  1
  N  N112  1  0.55347000  0.38989000  0.65657000  1
  N  N113  1  0.55347000  0.15657000  0.88989000  1
  N  N114  1  0.40007000  0.88989000  0.15657000  1
  N  N115  1  0.40007000  0.65657000  0.38989000  1
