# generated using pymatgen
data_Cu3H16WC20S3N4Cl
_symmetry_space_group_name_H-M   'P 1'
_cell_length_a   19.57150000
_cell_length_b   19.57160000
_cell_length_c   31.96490558
_cell_angle_alpha   105.14472067
_cell_angle_beta   105.14460775
_cell_angle_gamma   98.43070000
_symmetry_Int_Tables_number   1
_chemical_formula_structural   Cu3H16WC20S3N4Cl
_chemical_formula_sum   'Cu24 H128 W8 C160 S24 N32 Cl8'
_cell_volume   11100.80477904
_cell_formula_units_Z   8
loop_
 _symmetry_equiv_pos_site_id
 _symmetry_equiv_pos_as_xyz
  1  'x, y, z'
loop_
 _atom_site_type_symbol
 _atom_site_label
 _atom_site_symmetry_multiplicity
 _atom_site_fract_x
 _atom_site_fract_y
 _atom_site_fract_z
 _atom_site_occupancy
  Cu  Cu0  1  0.63175000  0.76209000  0.48492000  1
  Cu  Cu1  1  0.72212000  0.30664000  0.53750000  1
  Cu  Cu2  1  0.23791000  0.36825000  0.01508000  1
  Cu  Cu3  1  0.22283000  0.85317000  0.98492000  1
  Cu  Cu4  1  0.30664000  0.72212000  0.03750000  1
  Cu  Cu5  1  0.81538000  0.73086000  0.53750000  1
  Cu  Cu6  1  0.36058000  0.28600000  0.08206000  1
  Cu  Cu7  1  0.70394000  0.27852000  0.41794000  1
  Cu  Cu8  1  0.71400000  0.63942000  0.41794000  1
  Cu  Cu9  1  0.26914000  0.18462000  0.96250000  1
  Cu  Cu10  1  0.27852000  0.70394000  0.91794000  1
  Cu  Cu11  1  0.85317000  0.22283000  0.48492000  1
  Cu  Cu12  1  0.14683000  0.77717000  0.51508000  1
  Cu  Cu13  1  0.72148000  0.29606000  0.08206000  1
  Cu  Cu14  1  0.73086000  0.81538000  0.03750000  1
  Cu  Cu15  1  0.28600000  0.36058000  0.58206000  1
  Cu  Cu16  1  0.29606000  0.72148000  0.58206000  1
  Cu  Cu17  1  0.63942000  0.71400000  0.91794000  1
  Cu  Cu18  1  0.18462000  0.26914000  0.46250000  1
  Cu  Cu19  1  0.69336000  0.27788000  0.96250000  1
  Cu  Cu20  1  0.77717000  0.14683000  0.01508000  1
  Cu  Cu21  1  0.76209000  0.63175000  0.98492000  1
  Cu  Cu22  1  0.27788000  0.69336000  0.46250000  1
  Cu  Cu23  1  0.36825000  0.23791000  0.51508000  1
  H  H24  1  0.97110000  0.88010000  0.97040000  1
  H  H25  1  0.49280000  0.18500000  0.48280000  1
  H  H26  1  0.44330000  0.36970000  0.41540000  1
  H  H27  1  0.99930000  0.59030000  0.97040000  1
  H  H28  1  0.48770000  0.65590000  0.44480000  1
  H  H29  1  0.58770000  0.42250000  0.53800000  1
  H  H30  1  0.10270000  0.36390000  0.03940000  1
  H  H31  1  0.54670000  0.09110000  0.47860000  1
  H  H32  1  0.63440000  0.70200000  0.55800000  1
  H  H33  1  0.11250000  0.06810000  0.02140000  1
  H  H34  1  0.50000000  0.45160000  0.40060000  1
  H  H35  1  0.06330000  0.82450000  0.96060000  1
  H  H36  1  0.09110000  0.54670000  0.97860000  1
  H  H37  1  0.59030000  0.99930000  0.47040000  1
  H  H38  1  0.65760000  0.49460000  0.51960000  1
  H  H39  1  0.63610000  0.89730000  0.46060000  1
  H  H40  1  0.20220000  0.01000000  0.01720000  1
  H  H41  1  0.57350000  0.53410000  0.38520000  1
  H  H42  1  0.37630000  0.34570000  0.18180000  1
  H  H43  1  0.18500000  0.49280000  0.98280000  1
  H  H44  1  0.46070000  0.35550000  0.24960000  1
  H  H45  1  0.53260000  0.36620000  0.31100000  1
  H  H46  1  0.60800000  0.36020000  0.38180000  1
  H  H47  1  0.72800000  0.56960000  0.49660000  1
  H  H48  1  0.76860000  0.42700000  0.49660000  1
  H  H49  1  0.34410000  0.51230000  0.05520000  1
  H  H50  1  0.35600000  0.92360000  0.05800000  1
  H  H51  1  0.65430000  0.62370000  0.31820000  1
  H  H52  1  0.86200000  0.52500000  0.51960000  1
  H  H53  1  0.28890000  0.95710000  0.94480000  1
  H  H54  1  0.66390000  0.19450000  0.31820000  1
  H  H55  1  0.46590000  0.42650000  0.11480000  1
  H  H56  1  0.60590000  0.21110000  0.25040000  1
  H  H57  1  0.29800000  0.36560000  0.94200000  1
  H  H58  1  0.47840000  0.22620000  0.11820000  1
  H  H59  1  0.82450000  0.06330000  0.46060000  1
  H  H60  1  0.92360000  0.35600000  0.55800000  1
  H  H61  1  0.55520000  0.22160000  0.18900000  1
  H  H62  1  0.45430000  0.02790000  0.08460000  1
  H  H63  1  0.19450000  0.66390000  0.81820000  1
  H  H64  1  0.42250000  0.58770000  0.03800000  1
  H  H65  1  0.77380000  0.52160000  0.38180000  1
  H  H66  1  0.64450000  0.53930000  0.25040000  1
  H  H67  1  0.88010000  0.97110000  0.47040000  1
  H  H68  1  0.95030000  0.61550000  0.53800000  1
  H  H69  1  0.38450000  0.04970000  0.96200000  1
  H  H70  1  0.81170000  0.35110000  0.38520000  1
  H  H71  1  0.43040000  0.27200000  0.00340000  1
  H  H72  1  0.42700000  0.76860000  0.99660000  1
  H  H73  1  0.02790000  0.45430000  0.58460000  1
  H  H74  1  0.63380000  0.46740000  0.18900000  1
  H  H75  1  0.54840000  0.50000000  0.09940000  1
  H  H76  1  0.55100000  0.09940000  0.09940000  1
  H  H77  1  0.93190000  0.88750000  0.47860000  1
  H  H78  1  0.36970000  0.44330000  0.91540000  1
  H  H79  1  0.21110000  0.60590000  0.75040000  1
  H  H80  1  0.35110000  0.81170000  0.88520000  1
  H  H81  1  0.77840000  0.44480000  0.31100000  1
  H  H82  1  0.49460000  0.65760000  0.01960000  1
  H  H83  1  0.36020000  0.60800000  0.88180000  1
  H  H84  1  0.04290000  0.71110000  0.55520000  1
  H  H85  1  0.01000000  0.20220000  0.51720000  1
  H  H86  1  0.47500000  0.13800000  0.98040000  1
  H  H87  1  0.90060000  0.44900000  0.40060000  1
  H  H88  1  0.09940000  0.55100000  0.59940000  1
  H  H89  1  0.52500000  0.86200000  0.01960000  1
  H  H90  1  0.99000000  0.79780000  0.48280000  1
  H  H91  1  0.95710000  0.28890000  0.44480000  1
  H  H92  1  0.63980000  0.39200000  0.11820000  1
  H  H93  1  0.50540000  0.34240000  0.98040000  1
  H  H94  1  0.22160000  0.55520000  0.68900000  1
  H  H95  1  0.64890000  0.18830000  0.11480000  1
  H  H96  1  0.78890000  0.39410000  0.24960000  1
  H  H97  1  0.63030000  0.55670000  0.08460000  1
  H  H98  1  0.06810000  0.11250000  0.52140000  1
  H  H99  1  0.44900000  0.90060000  0.90060000  1
  H  H100  1  0.45160000  0.50000000  0.90060000  1
  H  H101  1  0.36620000  0.53260000  0.81100000  1
  H  H102  1  0.97210000  0.54570000  0.41540000  1
  H  H103  1  0.57300000  0.23140000  0.00340000  1
  H  H104  1  0.56960000  0.72800000  0.99660000  1
  H  H105  1  0.18830000  0.64890000  0.61480000  1
  H  H106  1  0.61550000  0.95030000  0.03800000  1
  H  H107  1  0.04970000  0.38450000  0.46200000  1
  H  H108  1  0.11990000  0.02890000  0.52960000  1
  H  H109  1  0.35550000  0.46070000  0.74960000  1
  H  H110  1  0.22620000  0.47840000  0.61820000  1
  H  H111  1  0.57750000  0.41230000  0.96200000  1
  H  H112  1  0.80550000  0.33610000  0.18180000  1
  H  H113  1  0.54570000  0.97210000  0.91540000  1
  H  H114  1  0.44480000  0.77840000  0.81100000  1
  H  H115  1  0.07640000  0.64400000  0.44200000  1
  H  H116  1  0.17550000  0.93670000  0.53940000  1
  H  H117  1  0.52160000  0.77380000  0.88180000  1
  H  H118  1  0.70200000  0.63440000  0.05800000  1
  H  H119  1  0.39410000  0.78890000  0.74960000  1
  H  H120  1  0.53410000  0.57350000  0.88520000  1
  H  H121  1  0.33610000  0.80550000  0.68180000  1
  H  H122  1  0.71110000  0.04290000  0.05520000  1
  H  H123  1  0.13800000  0.47500000  0.48040000  1
  H  H124  1  0.34570000  0.37630000  0.68180000  1
  H  H125  1  0.64400000  0.07640000  0.94200000  1
  H  H126  1  0.65590000  0.48770000  0.94480000  1
  H  H127  1  0.23140000  0.57300000  0.50340000  1
  H  H128  1  0.27200000  0.43040000  0.50340000  1
  H  H129  1  0.39200000  0.63980000  0.61820000  1
  H  H130  1  0.46740000  0.63380000  0.68900000  1
  H  H131  1  0.53930000  0.64450000  0.75040000  1
  H  H132  1  0.81500000  0.50720000  0.01720000  1
  H  H133  1  0.62370000  0.65430000  0.81820000  1
  H  H134  1  0.42650000  0.46590000  0.61480000  1
  H  H135  1  0.79780000  0.99000000  0.98280000  1
  H  H136  1  0.36390000  0.10270000  0.53940000  1
  H  H137  1  0.34240000  0.50540000  0.48040000  1
  H  H138  1  0.40970000  0.00070000  0.52960000  1
  H  H139  1  0.90890000  0.45330000  0.02140000  1
  H  H140  1  0.93670000  0.17550000  0.03940000  1
  H  H141  1  0.50000000  0.54840000  0.59940000  1
  H  H142  1  0.88750000  0.93190000  0.97860000  1
  H  H143  1  0.36560000  0.29800000  0.44200000  1
  H  H144  1  0.45330000  0.90890000  0.52140000  1
  H  H145  1  0.89730000  0.63610000  0.96060000  1
  H  H146  1  0.41230000  0.57750000  0.46200000  1
  H  H147  1  0.51230000  0.34410000  0.55520000  1
  H  H148  1  0.00070000  0.40970000  0.02960000  1
  H  H149  1  0.55670000  0.63030000  0.58460000  1
  H  H150  1  0.50720000  0.81500000  0.51720000  1
  H  H151  1  0.02890000  0.11990000  0.02960000  1
  W  W152  1  0.22007000  0.24007000  0.03112000  1
  W  W153  1  0.18895000  0.70895000  0.96888000  1
  W  W154  1  0.70895000  0.18895000  0.46888000  1
  W  W155  1  0.75993000  0.77993000  0.46888000  1
  W  W156  1  0.24007000  0.22007000  0.53112000  1
  W  W157  1  0.29105000  0.81105000  0.53112000  1
  W  W158  1  0.81105000  0.29105000  0.03112000  1
  W  W159  1  0.77993000  0.75993000  0.96888000  1
  C  C160  1  0.45780000  0.36840000  0.44520000  1
  C  C161  1  0.52350000  0.85190000  0.50640000  1
  C  C162  1  0.50770000  0.09090000  0.49020000  1
  C  C163  1  0.03860000  0.42920000  0.02060000  1
  C  C164  1  0.51510000  0.96770000  0.49680000  1
  C  C165  1  0.54260000  0.39820000  0.51660000  1
  C  C166  1  0.03230000  0.48490000  0.00320000  1
  C  C167  1  0.50370000  0.64950000  0.47340000  1
  C  C168  1  0.02910000  0.98170000  0.99680000  1
  C  C169  1  0.01800000  0.90860000  0.97940000  1
  C  C170  1  0.52360000  0.41040000  0.47620000  1
  C  C171  1  0.58790000  0.67790000  0.53860000  1
  C  C172  1  0.10000000  0.40040000  0.02580000  1
  C  C173  1  0.10070000  0.01750000  0.00980000  1
  C  C174  1  0.57080000  0.96140000  0.47940000  1
  C  C175  1  0.07420000  0.87460000  0.97420000  1
  C  C176  1  0.09090000  0.50770000  0.99020000  1
  C  C177  1  0.56980000  0.45980000  0.46340000  1
  C  C178  1  0.54580000  0.47500000  0.42140000  1
  C  C179  1  0.59960000  0.90000000  0.47420000  1
  C  C180  1  0.15450000  0.98290000  0.00640000  1
  C  C181  1  0.63920000  0.49980000  0.49100000  1
  C  C182  1  0.14810000  0.47650000  0.99360000  1
  C  C183  1  0.59160000  0.52440000  0.41240000  1
  C  C184  1  0.68110000  0.54630000  0.47720000  1
  C  C185  1  0.41440000  0.32260000  0.18180000  1
  C  C186  1  0.46400000  0.32420000  0.22300000  1
  C  C187  1  0.56020000  0.33120000  0.31060000  1
  C  C188  1  0.60660000  0.32700000  0.35460000  1
  C  C189  1  0.55730000  0.28710000  0.27140000  1
  C  C190  1  0.51570000  0.28590000  0.22860000  1
  C  C191  1  0.79610000  0.43090000  0.47720000  1
  C  C192  1  0.36070000  0.95070000  0.03860000  1
  C  C193  1  0.64080000  0.23260000  0.31820000  1
  C  C194  1  0.35050000  0.49630000  0.02660000  1
  C  C195  1  0.60120000  0.24100000  0.27700000  1
  C  C196  1  0.47240000  0.25200000  0.14540000  1
  C  C197  1  0.52060000  0.24960000  0.18940000  1
  C  C198  1  0.32390000  0.96970000  0.97340000  1
  C  C199  1  0.67740000  0.58560000  0.31820000  1
  C  C200  1  0.32210000  0.41210000  0.96140000  1
  C  C201  1  0.85180000  0.49120000  0.49100000  1
  C  C202  1  0.42320000  0.01260000  0.05480000  1
  C  C203  1  0.39820000  0.54260000  0.01660000  1
  C  C204  1  0.47560000  0.40840000  0.08760000  1
  C  C205  1  0.74800000  0.52760000  0.35460000  1
  C  C206  1  0.38160000  0.02600000  0.98340000  1
  C  C207  1  0.67580000  0.53600000  0.27700000  1
  C  C208  1  0.87460000  0.07420000  0.47420000  1
  C  C209  1  0.82080000  0.38800000  0.41240000  1
  C  C210  1  0.43420000  0.04740000  0.02380000  1
  C  C211  1  0.95070000  0.36070000  0.53860000  1
  C  C212  1  0.23260000  0.64080000  0.81820000  1
  C  C213  1  0.36840000  0.45780000  0.94520000  1
  C  C214  1  0.90860000  0.01800000  0.47940000  1
  C  C215  1  0.89360000  0.50360000  0.46340000  1
  C  C216  1  0.45370000  0.31890000  0.02280000  1
  C  C217  1  0.41040000  0.52360000  0.97620000  1
  C  C218  1  0.75040000  0.47940000  0.31060000  1
  C  C219  1  0.71410000  0.48430000  0.27140000  1
  C  C220  1  0.52500000  0.45420000  0.07860000  1
  C  C221  1  0.43090000  0.79610000  0.97720000  1
  C  C222  1  0.87560000  0.44640000  0.42140000  1
  C  C223  1  0.97400000  0.61840000  0.51660000  1
  C  C224  1  0.01260000  0.42320000  0.55480000  1
  C  C225  1  0.49640000  0.10640000  0.03660000  1
  C  C226  1  0.24100000  0.60120000  0.77700000  1
  C  C227  1  0.32700000  0.60660000  0.85460000  1
  C  C228  1  0.55360000  0.12440000  0.07860000  1
  C  C229  1  0.38800000  0.82080000  0.91240000  1
  C  C230  1  0.95260000  0.56580000  0.47620000  1
  C  C231  1  0.98290000  0.15450000  0.50640000  1
  C  C232  1  0.66880000  0.43980000  0.18940000  1
  C  C233  1  0.71290000  0.44270000  0.22860000  1
  C  C234  1  0.98170000  0.02910000  0.49680000  1
  C  C235  1  0.50020000  0.36080000  0.00900000  1
  C  C236  1  0.98250000  0.89930000  0.49020000  1
  C  C237  1  0.96970000  0.32390000  0.47340000  1
  C  C238  1  0.45980000  0.56980000  0.96340000  1
  C  C239  1  0.50880000  0.14820000  0.00900000  1
  C  C240  1  0.49120000  0.85180000  0.99100000  1
  C  C241  1  0.54020000  0.43020000  0.03660000  1
  C  C242  1  0.03030000  0.67610000  0.52660000  1
  C  C243  1  0.01750000  0.10070000  0.50980000  1
  C  C244  1  0.49980000  0.63920000  0.99100000  1
  C  C245  1  0.01830000  0.97090000  0.50320000  1
  C  C246  1  0.28710000  0.55730000  0.77140000  1
  C  C247  1  0.33120000  0.56020000  0.81060000  1
  C  C248  1  0.01710000  0.84550000  0.49360000  1
  C  C249  1  0.04740000  0.43420000  0.52380000  1
  C  C250  1  0.61200000  0.17920000  0.08760000  1
  C  C251  1  0.44640000  0.87560000  0.92140000  1
  C  C252  1  0.67300000  0.39340000  0.14540000  1
  C  C253  1  0.75900000  0.39880000  0.22300000  1
  C  C254  1  0.50360000  0.89360000  0.96340000  1
  C  C255  1  0.98740000  0.57680000  0.44520000  1
  C  C256  1  0.02600000  0.38160000  0.48340000  1
  C  C257  1  0.12440000  0.55360000  0.57860000  1
  C  C258  1  0.56910000  0.20390000  0.02280000  1
  C  C259  1  0.47500000  0.54580000  0.92140000  1
  C  C260  1  0.28590000  0.51570000  0.72860000  1
  C  C261  1  0.24960000  0.52060000  0.68940000  1
  C  C262  1  0.58960000  0.47640000  0.02380000  1
  C  C263  1  0.54630000  0.68110000  0.97720000  1
  C  C264  1  0.10640000  0.49640000  0.53660000  1
  C  C265  1  0.09140000  0.98200000  0.52060000  1
  C  C266  1  0.63160000  0.54220000  0.05480000  1
  C  C267  1  0.76740000  0.35920000  0.18180000  1
  C  C268  1  0.04930000  0.63930000  0.46140000  1
  C  C269  1  0.56580000  0.95260000  0.97620000  1
  C  C270  1  0.17920000  0.61200000  0.58760000  1
  C  C271  1  0.12540000  0.92580000  0.52580000  1
  C  C272  1  0.32420000  0.46400000  0.72300000  1
  C  C273  1  0.61840000  0.97400000  0.01660000  1
  C  C274  1  0.25200000  0.47240000  0.64540000  1
  C  C275  1  0.52440000  0.59160000  0.91240000  1
  C  C276  1  0.60180000  0.45740000  0.98340000  1
  C  C277  1  0.57680000  0.98740000  0.94520000  1
  C  C278  1  0.14820000  0.50880000  0.50900000  1
  C  C279  1  0.67790000  0.58790000  0.03860000  1
  C  C280  1  0.32260000  0.41440000  0.68180000  1
  C  C281  1  0.67610000  0.03030000  0.02660000  1
  C  C282  1  0.47940000  0.75040000  0.81060000  1
  C  C283  1  0.52760000  0.74800000  0.85460000  1
  C  C284  1  0.39880000  0.75900000  0.72300000  1
  C  C285  1  0.64950000  0.50370000  0.97340000  1
  C  C286  1  0.35920000  0.76740000  0.68180000  1
  C  C287  1  0.63930000  0.04930000  0.96140000  1
  C  C288  1  0.20390000  0.56910000  0.52280000  1
  C  C289  1  0.48430000  0.71410000  0.77140000  1
  C  C290  1  0.44270000  0.71290000  0.72860000  1
  C  C291  1  0.39340000  0.67300000  0.64540000  1
  C  C292  1  0.43980000  0.66880000  0.68940000  1
  C  C293  1  0.53600000  0.67580000  0.77700000  1
  C  C294  1  0.58560000  0.67740000  0.81820000  1
  C  C295  1  0.31890000  0.45370000  0.52280000  1
  C  C296  1  0.40840000  0.47560000  0.58760000  1
  C  C297  1  0.85190000  0.52350000  0.00640000  1
  C  C298  1  0.36080000  0.50020000  0.50900000  1
  C  C299  1  0.84550000  0.01710000  0.99360000  1
  C  C300  1  0.40040000  0.10000000  0.52580000  1
  C  C301  1  0.45420000  0.52500000  0.57860000  1
  C  C302  1  0.43020000  0.54020000  0.53660000  1
  C  C303  1  0.90910000  0.49230000  0.00980000  1
  C  C304  1  0.92580000  0.12540000  0.02580000  1
  C  C305  1  0.42920000  0.03860000  0.52060000  1
  C  C306  1  0.89930000  0.98250000  0.99020000  1
  C  C307  1  0.90000000  0.59960000  0.97420000  1
  C  C308  1  0.41210000  0.32210000  0.46140000  1
  C  C309  1  0.47640000  0.58960000  0.52380000  1
  C  C310  1  0.98200000  0.09140000  0.02060000  1
  C  C311  1  0.97090000  0.01830000  0.00320000  1
  C  C312  1  0.49630000  0.35050000  0.52660000  1
  C  C313  1  0.96770000  0.51510000  0.99680000  1
  C  C314  1  0.45740000  0.60180000  0.48340000  1
  C  C315  1  0.48490000  0.03230000  0.50320000  1
  C  C316  1  0.96140000  0.57080000  0.97940000  1
  C  C317  1  0.49230000  0.90910000  0.50980000  1
  C  C318  1  0.47650000  0.14810000  0.49360000  1
  C  C319  1  0.54220000  0.63160000  0.55480000  1
  S  S320  1  0.63921000  0.27085000  0.46742000  1
  S  S321  1  0.27152000  0.34960000  0.08408000  1
  S  S322  1  0.22545000  0.79349000  0.03768000  1
  S  S323  1  0.74419000  0.81223000  0.53768000  1
  S  S324  1  0.18777000  0.25581000  0.96232000  1
  S  S325  1  0.65040000  0.72848000  0.41592000  1
  S  S326  1  0.79349000  0.22545000  0.53768000  1
  S  S327  1  0.30343000  0.17179000  0.03258000  1
  S  S328  1  0.18744000  0.76552000  0.91592000  1
  S  S329  1  0.27085000  0.63921000  0.96742000  1
  S  S330  1  0.76552000  0.18744000  0.41592000  1
  S  S331  1  0.82821000  0.69657000  0.46742000  1
  S  S332  1  0.17179000  0.30343000  0.53258000  1
  S  S333  1  0.23448000  0.81256000  0.58408000  1
  S  S334  1  0.72915000  0.36079000  0.03258000  1
  S  S335  1  0.81256000  0.23448000  0.08408000  1
  S  S336  1  0.69657000  0.82821000  0.96742000  1
  S  S337  1  0.20651000  0.77455000  0.46232000  1
  S  S338  1  0.34960000  0.27152000  0.58408000  1
  S  S339  1  0.81223000  0.74419000  0.03768000  1
  S  S340  1  0.25581000  0.18777000  0.46232000  1
  S  S341  1  0.77455000  0.20651000  0.96232000  1
  S  S342  1  0.72848000  0.65040000  0.91592000  1
  S  S343  1  0.36079000  0.72915000  0.53258000  1
  N  N344  1  0.56860000  0.68720000  0.50020000  1
  N  N345  1  0.57720000  0.84660000  0.48800000  1
  N  N346  1  0.15340000  0.42280000  0.01200000  1
  N  N347  1  0.14140000  0.91080000  0.98800000  1
  N  N348  1  0.65820000  0.56040000  0.43740000  1
  N  N349  1  0.42290000  0.28830000  0.14380000  1
  N  N350  1  0.64450000  0.27910000  0.35620000  1
  N  N351  1  0.31300000  0.93160000  0.00020000  1
  N  N352  1  0.31280000  0.43140000  0.99980000  1
  N  N353  1  0.77920000  0.37700000  0.43740000  1
  N  N354  1  0.71170000  0.57710000  0.35620000  1
  N  N355  1  0.43960000  0.34180000  0.06260000  1
  N  N356  1  0.91080000  0.14140000  0.48800000  1
  N  N357  1  0.27910000  0.64450000  0.85620000  1
  N  N358  1  0.93160000  0.31300000  0.50020000  1
  N  N359  1  0.37700000  0.77920000  0.93740000  1
  N  N360  1  0.62300000  0.22080000  0.06260000  1
  N  N361  1  0.06840000  0.68700000  0.49980000  1
  N  N362  1  0.72090000  0.35550000  0.14380000  1
  N  N363  1  0.08920000  0.85860000  0.51200000  1
  N  N364  1  0.56040000  0.65820000  0.93740000  1
  N  N365  1  0.28830000  0.42290000  0.64380000  1
  N  N366  1  0.22080000  0.62300000  0.56260000  1
  N  N367  1  0.68720000  0.56860000  0.00020000  1
  N  N368  1  0.68700000  0.06840000  0.99980000  1
  N  N369  1  0.35550000  0.72090000  0.64380000  1
  N  N370  1  0.57710000  0.71170000  0.85620000  1
  N  N371  1  0.34180000  0.43960000  0.56260000  1
  N  N372  1  0.85860000  0.08920000  0.01200000  1
  N  N373  1  0.84660000  0.57720000  0.98800000  1
  N  N374  1  0.42280000  0.15340000  0.51200000  1
  N  N375  1  0.43140000  0.31280000  0.49980000  1
  Cl  Cl376  1  0.75595000  0.42315000  0.58770000  1
  Cl  Cl377  1  0.83175000  0.66455000  0.58770000  1
  Cl  Cl378  1  0.42315000  0.75595000  0.08770000  1
  Cl  Cl379  1  0.33545000  0.16825000  0.91230000  1
  Cl  Cl380  1  0.66455000  0.83175000  0.08770000  1
  Cl  Cl381  1  0.57685000  0.24405000  0.91230000  1
  Cl  Cl382  1  0.16825000  0.33545000  0.41230000  1
  Cl  Cl383  1  0.24405000  0.57685000  0.41230000  1
