# generated using pymatgen
data_TbZnH14C24N4ClO9
_symmetry_space_group_name_H-M   'P 1'
_cell_length_a   13.97550000
_cell_length_b   15.64373560
_cell_length_c   22.61840000
_cell_angle_alpha   98.51601973
_cell_angle_beta   90.00000000
_cell_angle_gamma   116.53090019
_symmetry_Int_Tables_number   1
_chemical_formula_structural   TbZnH14C24N4ClO9
_chemical_formula_sum   'Tb4 Zn4 H56 C96 N16 Cl4 O36'
_cell_volume   4363.27082502
_cell_formula_units_Z   4
loop_
 _symmetry_equiv_pos_site_id
 _symmetry_equiv_pos_as_xyz
  1  'x, y, z'
loop_
 _atom_site_type_symbol
 _atom_site_label
 _atom_site_symmetry_multiplicity
 _atom_site_fract_x
 _atom_site_fract_y
 _atom_site_fract_z
 _atom_site_occupancy
  C  C0  1  0.74009000  0.84826000  0.96934000  1
  C  C1  1  0.10817000  0.84826000  0.46934000  1
  C  C2  1  0.82315000  0.80864000  0.31743000  1
  C  C3  1  0.98549000  0.80864000  0.81743000  1
  C  C4  1  0.86651000  0.77858000  0.53901000  1
  C  C5  1  0.91207000  0.77858000  0.03901000  1
  C  C6  1  0.57594000  0.77788000  0.43760000  1
  C  C7  1  0.20194000  0.77788000  0.93760000  1
  C  C8  1  0.63680000  0.76108000  0.97658000  1
  C  C9  1  0.12428000  0.76108000  0.47658000  1
  C  C10  1  0.60670000  0.73436000  0.03193000  1
  C  C11  1  0.12766000  0.73436000  0.53193000  1
  C  C12  1  0.82482000  0.71752000  0.28640000  1
  C  C13  1  0.89270000  0.71752000  0.78640000  1
  C  C14  1  0.57023000  0.70352000  0.92659000  1
  C  C15  1  0.13329000  0.70352000  0.42659000  1
  C  C16  1  0.78744000  0.69248000  0.79988000  1
  C  C17  1  0.90504000  0.69248000  0.29988000  1
  C  C18  1  0.49860000  0.69080000  0.39421000  1
  C  C19  1  0.19220000  0.69080000  0.89421000  1
  C  C20  1  0.81706000  0.67982000  0.03058000  1
  C  C21  1  0.86276000  0.67982000  0.53058000  1
  C  C22  1  0.38931000  0.65722000  0.39460000  1
  C  C23  1  0.26791000  0.65722000  0.89460000  1
  C  C24  1  0.74514000  0.65542000  0.24257000  1
  C  C25  1  0.91028000  0.65542000  0.74257000  1
  C  C26  1  0.51519000  0.64988000  0.03512000  1
  C  C27  1  0.13469000  0.64988000  0.53512000  1
  C  C28  1  0.53498000  0.64156000  0.35171000  1
  C  C29  1  0.10658000  0.64156000  0.85171000  1
  C  C30  1  0.77402000  0.63500000  0.07857000  1
  C  C31  1  0.86098000  0.63500000  0.57857000  1
  C  C32  1  0.76844000  0.63136000  0.97341000  1
  C  C33  1  0.86292000  0.63136000  0.47341000  1
  C  C34  1  0.70517000  0.61154000  0.76701000  1
  C  C35  1  0.90637000  0.61154000  0.26701000  1
  C  C36  1  0.45396000  0.59396000  0.98274000  1
  C  C37  1  0.14000000  0.59396000  0.48274000  1
  C  C38  1  0.46274000  0.56108000  0.31349000  1
  C  C39  1  0.09834000  0.56108000  0.81349000  1
  C  C40  1  0.72902000  0.55424000  0.72247000  1
  C  C41  1  0.82522000  0.55424000  0.22247000  1
  C  C42  1  0.67944000  0.54204000  0.96772000  1
  C  C43  1  0.86260000  0.54204000  0.46772000  1
  C  C44  1  0.35492000  0.53244000  0.31704000  1
  C  C45  1  0.17752000  0.53244000  0.81704000  1
  C  C46  1  0.64168000  0.50098000  0.01858000  1
  C  C47  1  0.85930000  0.50098000  0.51858000  1
  C  C48  1  0.35832000  0.49902000  0.98142000  1
  C  C49  1  0.14070000  0.49902000  0.48142000  1
  C  C50  1  0.64508000  0.46756000  0.68296000  1
  C  C51  1  0.82248000  0.46756000  0.18296000  1
  C  C52  1  0.32056000  0.45796000  0.03228000  1
  C  C53  1  0.13740000  0.45796000  0.53228000  1
  C  C54  1  0.27098000  0.44576000  0.27753000  1
  C  C55  1  0.17478000  0.44576000  0.77753000  1
  C  C56  1  0.53726000  0.43892000  0.68651000  1
  C  C57  1  0.90166000  0.43892000  0.18651000  1
  C  C58  1  0.54604000  0.40604000  0.01726000  1
  C  C59  1  0.86000000  0.40604000  0.51726000  1
  C  C60  1  0.29483000  0.38846000  0.23299000  1
  C  C61  1  0.09363000  0.38846000  0.73299000  1
  C  C62  1  0.23156000  0.36864000  0.02659000  1
  C  C63  1  0.13708000  0.36864000  0.52659000  1
  C  C64  1  0.22598000  0.36500000  0.92143000  1
  C  C65  1  0.13902000  0.36500000  0.42143000  1
  C  C66  1  0.46502000  0.35844000  0.64829000  1
  C  C67  1  0.89342000  0.35844000  0.14829000  1
  C  C68  1  0.48481000  0.35012000  0.96488000  1
  C  C69  1  0.86531000  0.35012000  0.46488000  1
  C  C70  1  0.25486000  0.34458000  0.75743000  1
  C  C71  1  0.08972000  0.34458000  0.25743000  1
  C  C72  1  0.61069000  0.34278000  0.60540000  1
  C  C73  1  0.73209000  0.34278000  0.10540000  1
  C  C74  1  0.18294000  0.32018000  0.96942000  1
  C  C75  1  0.13724000  0.32018000  0.46942000  1
  C  C76  1  0.50140000  0.30920000  0.60579000  1
  C  C77  1  0.80780000  0.30920000  0.10579000  1
  C  C78  1  0.21256000  0.30752000  0.20012000  1
  C  C79  1  0.09496000  0.30752000  0.70012000  1
  C  C80  1  0.42977000  0.29648000  0.07341000  1
  C  C81  1  0.86671000  0.29648000  0.57341000  1
  C  C82  1  0.17518000  0.28248000  0.71360000  1
  C  C83  1  0.10730000  0.28248000  0.21360000  1
  C  C84  1  0.39330000  0.26564000  0.96807000  1
  C  C85  1  0.87234000  0.26564000  0.46807000  1
  C  C86  1  0.36320000  0.23892000  0.02342000  1
  C  C87  1  0.87572000  0.23892000  0.52342000  1
  C  C88  1  0.42406000  0.22212000  0.56240000  1
  C  C89  1  0.79806000  0.22212000  0.06240000  1
  C  C90  1  0.13349000  0.22142000  0.46099000  1
  C  C91  1  0.08793000  0.22142000  0.96099000  1
  C  C92  1  0.17685000  0.19136000  0.68257000  1
  C  C93  1  0.01451000  0.19136000  0.18257000  1
  C  C94  1  0.25991000  0.15174000  0.03066000  1
  C  C95  1  0.89183000  0.15174000  0.53066000  1
  Cl  Cl96  1  0.50432000  0.55094000  0.16580000  1
  Cl  Cl97  1  0.04662000  0.55094000  0.66580000  1
  Cl  Cl98  1  0.49568000  0.44906000  0.83420000  1
  Cl  Cl99  1  0.95338000  0.44906000  0.33420000  1
  H  H100  1  0.93660000  0.95720000  0.57760000  1
  H  H101  1  0.02060000  0.95720000  0.07760000  1
  H  H102  1  0.90020000  0.95440000  0.92530000  1
  H  H103  1  0.05420000  0.95440000  0.42530000  1
  H  H104  1  0.64900000  0.76700000  0.06260000  1
  H  H105  1  0.11800000  0.76700000  0.56260000  1
  H  H106  1  0.77310000  0.73220000  0.83190000  1
  H  H107  1  0.95910000  0.73220000  0.33190000  1
  H  H108  1  0.59240000  0.72420000  0.89220000  1
  H  H109  1  0.13180000  0.72420000  0.39220000  1
  H  H110  1  0.36490000  0.68180000  0.41670000  1
  H  H111  1  0.31690000  0.68180000  0.91670000  1
  H  H112  1  0.68740000  0.66880000  0.23180000  1
  H  H113  1  0.98140000  0.66880000  0.73180000  1
  H  H114  1  0.80610000  0.66400000  0.11690000  1
  H  H115  1  0.85790000  0.66400000  0.61690000  1
  H  H116  1  0.60180000  0.66160000  0.35000000  1
  H  H117  1  0.05980000  0.66160000  0.85000000  1
  H  H118  1  0.80270000  0.66000000  0.93810000  1
  H  H119  1  0.85730000  0.66000000  0.43810000  1
  H  H120  1  0.50070000  0.62800000  0.06960000  1
  H  H121  1  0.12730000  0.62800000  0.56960000  1
  H  H122  1  0.64110000  0.60020000  0.77400000  1
  H  H123  1  0.95910000  0.60020000  0.27400000  1
  H  H124  1  0.49020000  0.53240000  0.29150000  1
  H  H125  1  0.04220000  0.53240000  0.79150000  1
  H  H126  1  0.64130000  0.50780000  0.92840000  1
  H  H127  1  0.86650000  0.50780000  0.42840000  1
  H  H128  1  0.35870000  0.49220000  0.07160000  1
  H  H129  1  0.13350000  0.49220000  0.57160000  1
  H  H130  1  0.50980000  0.46760000  0.70850000  1
  H  H131  1  0.95780000  0.46760000  0.20850000  1
  H  H132  1  0.35890000  0.39980000  0.22600000  1
  H  H133  1  0.04090000  0.39980000  0.72600000  1
  H  H134  1  0.49930000  0.37200000  0.93040000  1
  H  H135  1  0.87270000  0.37200000  0.43040000  1
  H  H136  1  0.19730000  0.34000000  0.06190000  1
  H  H137  1  0.14270000  0.34000000  0.56190000  1
  H  H138  1  0.39820000  0.33840000  0.65000000  1
  H  H139  1  0.94020000  0.33840000  0.15000000  1
  H  H140  1  0.19390000  0.33600000  0.88310000  1
  H  H141  1  0.14210000  0.33600000  0.38310000  1
  H  H142  1  0.31260000  0.33120000  0.76820000  1
  H  H143  1  0.01860000  0.33120000  0.26820000  1
  H  H144  1  0.63510000  0.31820000  0.58330000  1
  H  H145  1  0.68310000  0.31820000  0.08330000  1
  H  H146  1  0.40760000  0.27580000  0.10780000  1
  H  H147  1  0.86820000  0.27580000  0.60780000  1
  H  H148  1  0.22690000  0.26780000  0.16810000  1
  H  H149  1  0.04090000  0.26780000  0.66810000  1
  H  H150  1  0.35100000  0.23300000  0.93740000  1
  H  H151  1  0.88200000  0.23300000  0.43740000  1
  H  H152  1  0.09980000  0.04560000  0.07470000  1
  H  H153  1  0.94580000  0.04560000  0.57470000  1
  H  H154  1  0.06340000  0.04280000  0.42240000  1
  H  H155  1  0.97940000  0.04280000  0.92240000  1
  N  N156  1  0.48030000  0.62240000  0.92889000  1
  N  N157  1  0.14210000  0.62240000  0.42889000  1
  N  N158  1  0.31814000  0.58090000  0.35722000  1
  N  N159  1  0.26276000  0.58090000  0.85722000  1
  N  N160  1  0.74352000  0.57504000  0.21195000  1
  N  N161  1  0.83152000  0.57504000  0.71195000  1
  N  N162  1  0.68944000  0.54774000  0.07356000  1
  N  N163  1  0.85830000  0.54774000  0.57356000  1
  N  N164  1  0.31056000  0.45226000  0.92644000  1
  N  N165  1  0.14170000  0.45226000  0.42644000  1
  N  N166  1  0.25648000  0.42496000  0.78805000  1
  N  N167  1  0.16848000  0.42496000  0.28805000  1
  N  N168  1  0.68186000  0.41910000  0.64278000  1
  N  N169  1  0.73724000  0.41910000  0.14278000  1
  N  N170  1  0.51970000  0.37760000  0.07111000  1
  N  N171  1  0.85790000  0.37760000  0.57111000  1
  O  O172  1  0.96263000  0.99958000  0.55690000  1
  O  O173  1  0.03695000  0.99958000  0.05690000  1
  O  O174  1  0.79288000  0.90170000  0.01765000  1
  O  O175  1  0.10882000  0.90170000  0.51765000  1
  O  O176  1  0.76652000  0.86012000  0.91753000  1
  O  O177  1  0.09360000  0.86012000  0.41753000  1
  O  O178  1  0.77896000  0.84550000  0.28830000  1
  O  O179  1  0.06654000  0.84550000  0.78830000  1
  O  O180  1  0.86575000  0.84026000  0.37000000  1
  O  O181  1  0.97451000  0.84026000  0.87000000  1
  O  O182  1  0.88775000  0.82646000  0.59108000  1
  O  O183  1  0.93871000  0.82646000  0.09108000  1
  O  O184  1  0.67120000  0.81688000  0.42327000  1
  O  O185  1  0.14568000  0.81688000  0.92327000  1
  O  O186  1  0.84808000  0.80526000  0.49263000  1
  O  O187  1  0.95718000  0.80526000  0.99263000  1
  O  O188  1  0.54045000  0.80320000  0.48366000  1
  O  O189  1  0.26275000  0.80320000  0.98366000  1
  O  O190  1  0.45955000  0.19680000  0.51634000  1
  O  O191  1  0.73725000  0.19680000  0.01634000  1
  O  O192  1  0.15192000  0.19474000  0.50737000  1
  O  O193  1  0.04282000  0.19474000  0.00737000  1
  O  O194  1  0.32880000  0.18312000  0.57673000  1
  O  O195  1  0.85432000  0.18312000  0.07673000  1
  O  O196  1  0.11225000  0.17354000  0.40892000  1
  O  O197  1  0.06129000  0.17354000  0.90892000  1
  O  O198  1  0.13425000  0.15974000  0.63000000  1
  O  O199  1  0.02549000  0.15974000  0.13000000  1
  O  O200  1  0.22104000  0.15450000  0.71170000  1
  O  O201  1  0.93346000  0.15450000  0.21170000  1
  O  O202  1  0.23348000  0.13988000  0.08247000  1
  O  O203  1  0.90640000  0.13988000  0.58247000  1
  O  O204  1  0.20712000  0.09830000  0.98235000  1
  O  O205  1  0.89118000  0.09830000  0.48235000  1
  O  O206  1  0.03737000  0.00042000  0.44310000  1
  O  O207  1  0.96305000  0.00042000  0.94310000  1
  Tb  Tb208  1  0.84364000  0.93414000  0.45700000  1
  Tb  Tb209  1  0.09050000  0.93414000  0.95700000  1
  Tb  Tb210  1  0.15636000  0.06586000  0.54300000  1
  Tb  Tb211  1  0.90950000  0.06586000  0.04300000  1
  Zn  Zn212  1  0.38348000  0.52582000  0.85197000  1
  Zn  Zn213  1  0.14234000  0.52582000  0.35197000  1
  Zn  Zn214  1  0.61652000  0.47418000  0.14803000  1
  Zn  Zn215  1  0.85766000  0.47418000  0.64803000  1
