# generated using pymatgen
data_UH2(C5O4)2
_symmetry_space_group_name_H-M   'P 1'
_cell_length_a   9.42717813
_cell_length_b   9.42717813
_cell_length_c   12.77080000
_cell_angle_alpha   96.66018401
_cell_angle_beta   96.66018401
_cell_angle_gamma   112.48332669
_symmetry_Int_Tables_number   1
_chemical_formula_structural   UH2(C5O4)2
_chemical_formula_sum   'U2 H4 C20 O16'
_cell_volume   1025.59931153
_cell_formula_units_Z   2
loop_
 _symmetry_equiv_pos_site_id
 _symmetry_equiv_pos_as_xyz
  1  'x, y, z'
loop_
 _atom_site_type_symbol
 _atom_site_label
 _atom_site_symmetry_multiplicity
 _atom_site_fract_x
 _atom_site_fract_y
 _atom_site_fract_z
 _atom_site_occupancy
  C  C0  1  0.48632000  0.26868000  0.12340000  1
  C  C1  1  0.26868000  0.48632000  0.62340000  1
  C  C2  1  0.49220000  0.24440000  0.88440000  1
  C  C3  1  0.24440000  0.49220000  0.38440000  1
  C  C4  1  0.49024000  0.13016000  0.05720000  1
  C  C5  1  0.13016000  0.49024000  0.55720000  1
  C  C6  1  0.49231000  0.11969000  0.94740000  1
  C  C7  1  0.11969000  0.49231000  0.44740000  1
  C  C8  1  0.49606000  0.00954000  0.10760000  1
  C  C9  1  0.00954000  0.49606000  0.60760000  1
  C  C10  1  0.50394000  0.99046000  0.89240000  1
  C  C11  1  0.99046000  0.50394000  0.39240000  1
  C  C12  1  0.50769000  0.88031000  0.05260000  1
  C  C13  1  0.88031000  0.50769000  0.55260000  1
  C  C14  1  0.50976000  0.86984000  0.94280000  1
  C  C15  1  0.86984000  0.50976000  0.44280000  1
  C  C16  1  0.50780000  0.75560000  0.11560000  1
  C  C17  1  0.75560000  0.50780000  0.61560000  1
  C  C18  1  0.51368000  0.73132000  0.87660000  1
  C  C19  1  0.73132000  0.51368000  0.37660000  1
  H  H20  1  0.49197000  0.01591000  0.18272000  1
  H  H21  1  0.01591000  0.49197000  0.68272000  1
  H  H22  1  0.50803000  0.98409000  0.81728000  1
  H  H23  1  0.98409000  0.50803000  0.31728000  1
  O  O24  1  0.61708000  0.31532000  0.85210000  1
  O  O25  1  0.31532000  0.61708000  0.35210000  1
  O  O26  1  0.51665000  0.39375000  0.08725000  1
  O  O27  1  0.39375000  0.51665000  0.58725000  1
  O  O28  1  0.45236000  0.25944000  0.21667000  1
  O  O29  1  0.25944000  0.45236000  0.71667000  1
  O  O30  1  0.37584000  0.27236000  0.85980000  1
  O  O31  1  0.27236000  0.37584000  0.35980000  1
  O  O32  1  0.62416000  0.72764000  0.14020000  1
  O  O33  1  0.72764000  0.62416000  0.64020000  1
  O  O34  1  0.54764000  0.74056000  0.78333000  1
  O  O35  1  0.74056000  0.54764000  0.28333000  1
  O  O36  1  0.48335000  0.60625000  0.91275000  1
  O  O37  1  0.60625000  0.48335000  0.41275000  1
  O  O38  1  0.38292000  0.68468000  0.14790000  1
  O  O39  1  0.68468000  0.38292000  0.64790000  1
  U  U40  1  0.52825000  0.47175000  0.75000000  1
  U  U41  1  0.47175000  0.52825000  0.25000000  1
