# generated using pymatgen
data_CuH6C6(N2O)4
_symmetry_space_group_name_H-M   'P 1'
_cell_length_a   5.10210000
_cell_length_b   17.21297749
_cell_length_c   17.21297749
_cell_angle_alpha   88.74141225
_cell_angle_beta   81.47707976
_cell_angle_gamma   81.47707976
_symmetry_Int_Tables_number   1
_chemical_formula_structural   CuH6C6(N2O)4
_chemical_formula_sum   'Cu4 H24 C24 N32 O16'
_cell_volume   1478.48009915
_cell_formula_units_Z   4
loop_
 _symmetry_equiv_pos_site_id
 _symmetry_equiv_pos_as_xyz
  1  'x, y, z'
loop_
 _atom_site_type_symbol
 _atom_site_label
 _atom_site_symmetry_multiplicity
 _atom_site_fract_x
 _atom_site_fract_y
 _atom_site_fract_z
 _atom_site_occupancy
  C  C0  1  0.28152000  0.84571000  0.04325000  1
  C  C1  1  0.82952000  0.34571000  0.54325000  1
  C  C2  1  0.68977000  0.52104000  0.34422000  1
  C  C3  1  0.44497000  0.02104000  0.84422000  1
  C  C4  1  0.89780000  0.54809000  0.27751000  1
  C  C5  1  0.27660000  0.04809000  0.77751000  1
  C  C6  1  0.05411000  0.72249000  0.04809000  1
  C  C7  1  0.17531000  0.22249000  0.54809000  1
  C  C8  1  0.67523000  0.54325000  0.15429000  1
  C  C9  1  0.62723000  0.04325000  0.65429000  1
  C  C10  1  0.28919000  0.65578000  0.02104000  1
  C  C11  1  0.03399000  0.15578000  0.52104000  1
  C  C12  1  0.71081000  0.34422000  0.97896000  1
  C  C13  1  0.96601000  0.84422000  0.47896000  1
  C  C14  1  0.32477000  0.45675000  0.84571000  1
  C  C15  1  0.37277000  0.95675000  0.34571000  1
  C  C16  1  0.94589000  0.27751000  0.95191000  1
  C  C17  1  0.82469000  0.77751000  0.45191000  1
  C  C18  1  0.10220000  0.45191000  0.72249000  1
  C  C19  1  0.72340000  0.95191000  0.22249000  1
  C  C20  1  0.31023000  0.47896000  0.65578000  1
  C  C21  1  0.55503000  0.97896000  0.15578000  1
  C  C22  1  0.71848000  0.15429000  0.95675000  1
  C  C23  1  0.17048000  0.65429000  0.45675000  1
  Cu  Cu24  1  0.50000000  0.00000000  0.00000000  1
  Cu  Cu25  1  0.50000000  0.50000000  0.50000000  1
  Cu  Cu26  1  0.50000000  0.50000000  0.00000000  1
  Cu  Cu27  1  0.00000000  1.00000000  0.50000000  1
  H  H28  1  0.37520000  0.83480000  0.08560000  1
  H  H29  1  0.70440000  0.33480000  0.58560000  1
  H  H30  1  0.87740000  0.60500000  0.27680000  1
  H  H31  1  0.24080000  0.10500000  0.77680000  1
  H  H32  1  0.01760000  0.72320000  0.10500000  1
  H  H33  1  0.15420000  0.22320000  0.60500000  1
  H  H34  1  0.07720000  0.52860000  0.28820000  1
  H  H35  1  0.10600000  0.02860000  0.78820000  1
  H  H36  1  0.53920000  0.58560000  0.16520000  1
  H  H37  1  0.71000000  0.08560000  0.66520000  1
  H  H38  1  0.89420000  0.71180000  0.02860000  1
  H  H39  1  0.36540000  0.21180000  0.52860000  1
  H  H40  1  0.10580000  0.28820000  0.97140000  1
  H  H41  1  0.63460000  0.78820000  0.47140000  1
  H  H42  1  0.46080000  0.41440000  0.83480000  1
  H  H43  1  0.29000000  0.91440000  0.33480000  1
  H  H44  1  0.92280000  0.47140000  0.71180000  1
  H  H45  1  0.89400000  0.97140000  0.21180000  1
  H  H46  1  0.98240000  0.27680000  0.89500000  1
  H  H47  1  0.84580000  0.77680000  0.39500000  1
  H  H48  1  0.12260000  0.39500000  0.72320000  1
  H  H49  1  0.75920000  0.89500000  0.22320000  1
  H  H50  1  0.62480000  0.16520000  0.91440000  1
  H  H51  1  0.29560000  0.66520000  0.41440000  1
  N  N52  1  0.29098000  0.90889000  0.99615000  1
  N  N53  1  0.80398000  0.40889000  0.49615000  1
  N  N54  1  0.12283000  0.90025000  0.94209000  1
  N  N55  1  0.03483000  0.40025000  0.44209000  1
  N  N56  1  0.11597000  0.80105000  0.01941000  1
  N  N57  1  0.06357000  0.30105000  0.51941000  1
  N  N58  1  0.01996000  0.83575000  0.95553000  1
  N  N59  1  0.18876000  0.33575000  0.45553000  1
  N  N60  1  0.86462000  0.51941000  0.19895000  1
  N  N61  1  0.41702000  0.01941000  0.69895000  1
  N  N62  1  0.02451000  0.45553000  0.16425000  1
  N  N63  1  0.35571000  0.95553000  0.66425000  1
  N  N64  1  0.71287000  0.49615000  0.09111000  1
  N  N65  1  0.69987000  0.99615000  0.59111000  1
  N  N66  1  0.93508000  0.44209000  0.09975000  1
  N  N67  1  0.52308000  0.94209000  0.59975000  1
  N  N68  1  0.06492000  0.55791000  0.90025000  1
  N  N69  1  0.47692000  0.05791000  0.40025000  1
  N  N70  1  0.28713000  0.50385000  0.90889000  1
  N  N71  1  0.30013000  0.00385000  0.40889000  1
  N  N72  1  0.97549000  0.54447000  0.83575000  1
  N  N73  1  0.64429000  0.04447000  0.33575000  1
  N  N74  1  0.13538000  0.48059000  0.80105000  1
  N  N75  1  0.58298000  0.98059000  0.30105000  1
  N  N76  1  0.98004000  0.16425000  0.04447000  1
  N  N77  1  0.81124000  0.66425000  0.54447000  1
  N  N78  1  0.88403000  0.19895000  0.98059000  1
  N  N79  1  0.93643000  0.69895000  0.48059000  1
  N  N80  1  0.87717000  0.09975000  0.05791000  1
  N  N81  1  0.96517000  0.59975000  0.55791000  1
  N  N82  1  0.70902000  0.09111000  0.00385000  1
  N  N83  1  0.19602000  0.59111000  0.50385000  1
  O  O84  1  0.70014000  0.55101000  0.41131000  1
  O  O85  1  0.33754000  0.05101000  0.91131000  1
  O  O86  1  0.54008000  0.47486000  0.33078000  1
  O  O87  1  0.65428000  0.97486000  0.83078000  1
  O  O88  1  0.48506000  0.66922000  0.97486000  1
  O  O89  1  0.87086000  0.16922000  0.47486000  1
  O  O90  1  0.24885000  0.58869000  0.05101000  1
  O  O91  1  0.11145000  0.08869000  0.55101000  1
  O  O92  1  0.75115000  0.41131000  0.94899000  1
  O  O93  1  0.88855000  0.91131000  0.44899000  1
  O  O94  1  0.51494000  0.33078000  0.02514000  1
  O  O95  1  0.12914000  0.83078000  0.52514000  1
  O  O96  1  0.45992000  0.52514000  0.66922000  1
  O  O97  1  0.34572000  0.02514000  0.16922000  1
  O  O98  1  0.29986000  0.44899000  0.58869000  1
  O  O99  1  0.66246000  0.94899000  0.08869000  1
