# generated using pymatgen
data_KFeNiH24C48(NO2)4
_symmetry_space_group_name_H-M   'P 1'
_cell_length_a   7.22800000
_cell_length_b   13.01051491
_cell_length_c   30.90200000
_cell_angle_alpha   89.12069893
_cell_angle_beta   86.83300000
_cell_angle_gamma   73.87252611
_symmetry_Int_Tables_number   1
_chemical_formula_structural   KFeNiH24C48(NO2)4
_chemical_formula_sum   'K2 Fe2 Ni2 H48 C96 N8 O16'
_cell_volume   2787.39709525
_cell_formula_units_Z   2
loop_
 _symmetry_equiv_pos_site_id
 _symmetry_equiv_pos_as_xyz
  1  'x, y, z'
loop_
 _atom_site_type_symbol
 _atom_site_label
 _atom_site_symmetry_multiplicity
 _atom_site_fract_x
 _atom_site_fract_y
 _atom_site_fract_z
 _atom_site_occupancy
  C  C0  1  0.39800000  0.19280000  0.67470000  1
  C  C1  1  0.59080000  0.80720000  0.17470000  1
  C  C2  1  0.32230000  0.34000000  0.14970000  1
  C  C3  1  0.66230000  0.66000000  0.64970000  1
  C  C4  1  0.23540000  0.51320000  0.30700000  1
  C  C5  1  0.74860000  0.48680000  0.80700000  1
  C  C6  1  0.03530000  0.86560000  0.58141000  1
  C  C7  1  0.90090000  0.13440000  0.08141000  1
  C  C8  1  0.36510000  0.19640000  0.52226000  1
  C  C9  1  0.56150000  0.80360000  0.02226000  1
  C  C10  1  0.02280000  0.85520000  0.87663000  1
  C  C11  1  0.87800000  0.14480000  0.37663000  1
  C  C12  1  0.40120000  0.09720000  0.60803000  1
  C  C13  1  0.49840000  0.90280000  0.10803000  1
  C  C14  1  0.30240000  0.26360000  0.37990000  1
  C  C15  1  0.56600000  0.73640000  0.87990000  1
  C  C16  1  0.30900000  0.23300000  0.48290000  1
  C  C17  1  0.54200000  0.76700000  0.98290000  1
  C  C18  1  0.20020000  0.42800000  0.34100000  1
  C  C19  1  0.62820000  0.57200000  0.84100000  1
  C  C20  1  0.29930000  0.15660000  0.64339000  1
  C  C21  1  0.45590000  0.84340000  0.14339000  1
  C  C22  1  0.32120000  0.07680000  0.89524000  1
  C  C23  1  0.39800000  0.92320000  0.39524000  1
  C  C24  1  0.02240000  0.63120000  0.60860000  1
  C  C25  1  0.65360000  0.36880000  0.10860000  1
  C  C26  1  0.27440000  0.11440000  0.53352000  1
  C  C27  1  0.38880000  0.88560000  0.03352000  1
  C  C28  1  0.28820000  0.06340000  0.57346000  1
  C  C29  1  0.35160000  0.93660000  0.07346000  1
  C  C30  1  0.23242000  0.17236000  0.82889000  1
  C  C31  1  0.40478000  0.82764000  0.32889000  1
  C  C32  1  0.91450000  0.80720000  0.56909000  1
  C  C33  1  0.72170000  0.19280000  0.06909000  1
  C  C34  1  0.85060000  0.92680000  0.87556000  1
  C  C35  1  0.77740000  0.07320000  0.37556000  1
  C  C36  1  0.91916000  0.78108000  0.20304000  1
  C  C37  1  0.70024000  0.21892000  0.70304000  1
  C  C38  1  0.81310000  0.98460000  0.91613000  1
  C  C39  1  0.79770000  0.01540000  0.41613000  1
  C  C40  1  0.17960000  0.17420000  0.46923000  1
  C  C41  1  0.35380000  0.82580000  0.96923000  1
  C  C42  1  0.98620000  0.55560000  0.63810000  1
  C  C43  1  0.54180000  0.44440000  0.13810000  1
  C  C44  1  0.12320000  0.27700000  0.39999000  1
  C  C45  1  0.40020000  0.72300000  0.89999000  1
  C  C46  1  0.81310000  0.88780000  0.13614000  1
  C  C47  1  0.70090000  0.11220000  0.63614000  1
  C  C48  1  0.18690000  0.11220000  0.86386000  1
  C  C49  1  0.29910000  0.88780000  0.36386000  1
  C  C50  1  0.87680000  0.72300000  0.60001000  1
  C  C51  1  0.59980000  0.27700000  0.10001000  1
  C  C52  1  0.01380000  0.44440000  0.36190000  1
  C  C53  1  0.45820000  0.55560000  0.86190000  1
  C  C54  1  0.82040000  0.82580000  0.53077000  1
  C  C55  1  0.64620000  0.17420000  0.03077000  1
  C  C56  1  0.18690000  0.01540000  0.08387000  1
  C  C57  1  0.20230000  0.98460000  0.58387000  1
  C  C58  1  0.08084000  0.21892000  0.79696000  1
  C  C59  1  0.29976000  0.78108000  0.29696000  1
  C  C60  1  0.14940000  0.07320000  0.12444000  1
  C  C61  1  0.22260000  0.92680000  0.62444000  1
  C  C62  1  0.08550000  0.19280000  0.43091000  1
  C  C63  1  0.27830000  0.80720000  0.93091000  1
  C  C64  1  0.76758000  0.82764000  0.17111000  1
  C  C65  1  0.59522000  0.17236000  0.67111000  1
  C  C66  1  0.71180000  0.93660000  0.42654000  1
  C  C67  1  0.64840000  0.06340000  0.92654000  1
  C  C68  1  0.72560000  0.88560000  0.46648000  1
  C  C69  1  0.61120000  0.11440000  0.96648000  1
  C  C70  1  0.97760000  0.36880000  0.39140000  1
  C  C71  1  0.34640000  0.63120000  0.89140000  1
  C  C72  1  0.67880000  0.92320000  0.10476000  1
  C  C73  1  0.60200000  0.07680000  0.60476000  1
  C  C74  1  0.70070000  0.84340000  0.35661000  1
  C  C75  1  0.54410000  0.15660000  0.85661000  1
  C  C76  1  0.79980000  0.57200000  0.65900000  1
  C  C77  1  0.37180000  0.42800000  0.15900000  1
  C  C78  1  0.69100000  0.76700000  0.51710000  1
  C  C79  1  0.45800000  0.23300000  0.01710000  1
  C  C80  1  0.69760000  0.73640000  0.62010000  1
  C  C81  1  0.43400000  0.26360000  0.12010000  1
  C  C82  1  0.59880000  0.90280000  0.39197000  1
  C  C83  1  0.50160000  0.09720000  0.89197000  1
  C  C84  1  0.97720000  0.14480000  0.12337000  1
  C  C85  1  0.12200000  0.85520000  0.62337000  1
  C  C86  1  0.63490000  0.80360000  0.47774000  1
  C  C87  1  0.43850000  0.19640000  0.97774000  1
  C  C88  1  0.96470000  0.13440000  0.41859000  1
  C  C89  1  0.09910000  0.86560000  0.91859000  1
  C  C90  1  0.76460000  0.48680000  0.69300000  1
  C  C91  1  0.25140000  0.51320000  0.19300000  1
  C  C92  1  0.67770000  0.66000000  0.85030000  1
  C  C93  1  0.33770000  0.34000000  0.35030000  1
  C  C94  1  0.60200000  0.80720000  0.32530000  1
  C  C95  1  0.40920000  0.19280000  0.82530000  1
  Fe  Fe96  1  0.16382000  0.67236000  0.25000000  1
  Fe  Fe97  1  0.83618000  0.32764000  0.75000000  1
  H  H98  1  0.39500000  0.20320000  0.11410000  1
  H  H99  1  0.59820000  0.79680000  0.61410000  1
  H  H100  1  0.34630000  0.28640000  0.46730000  1
  H  H101  1  0.63270000  0.71360000  0.96730000  1
  H  H102  1  0.08310000  0.80740000  0.85470000  1
  H  H103  1  0.89050000  0.19260000  0.35470000  1
  H  H104  1  0.14380000  0.62000000  0.59470000  1
  H  H105  1  0.76380000  0.38000000  0.09470000  1
  H  H106  1  0.32930000  0.23140000  0.69830000  1
  H  H107  1  0.56070000  0.76860000  0.19830000  1
  H  H108  1  0.33210000  0.22000000  0.96090000  1
  H  H109  1  0.55210000  0.78000000  0.46090000  1
  H  H110  1  0.93110000  0.90360000  0.13390000  1
  H  H111  1  0.83470000  0.09640000  0.63390000  1
  H  H112  1  0.21120000  0.32860000  0.16310000  1
  H  H113  1  0.53980000  0.67140000  0.66310000  1
  H  H114  1  0.08420000  0.49460000  0.64410000  1
  H  H115  1  0.57880000  0.50540000  0.14410000  1
  H  H116  1  0.29040000  0.03840000  0.91890000  1
  H  H117  1  0.32880000  0.96160000  0.41890000  1
  H  H118  1  0.23110000  0.06220000  0.14730000  1
  H  H119  1  0.29330000  0.93780000  0.64730000  1
  H  H120  1  0.16560000  0.17200000  0.64600000  1
  H  H121  1  0.33760000  0.82800000  0.14600000  1
  H  H122  1  0.83440000  0.82800000  0.35400000  1
  H  H123  1  0.66240000  0.17200000  0.85400000  1
  H  H124  1  0.76890000  0.93780000  0.85270000  1
  H  H125  1  0.70670000  0.06220000  0.35270000  1
  H  H126  1  0.70960000  0.96160000  0.08110000  1
  H  H127  1  0.67120000  0.03840000  0.58110000  1
  H  H128  1  0.91580000  0.50540000  0.35590000  1
  H  H129  1  0.42120000  0.49460000  0.85590000  1
  H  H130  1  0.78880000  0.67140000  0.83690000  1
  H  H131  1  0.46020000  0.32860000  0.33690000  1
  H  H132  1  0.06890000  0.09640000  0.86610000  1
  H  H133  1  0.16530000  0.90360000  0.36610000  1
  H  H134  1  0.66790000  0.78000000  0.03910000  1
  H  H135  1  0.44790000  0.22000000  0.53910000  1
  H  H136  1  0.67070000  0.76860000  0.30170000  1
  H  H137  1  0.43930000  0.23140000  0.80170000  1
  H  H138  1  0.85620000  0.38000000  0.40530000  1
  H  H139  1  0.23620000  0.62000000  0.90530000  1
  H  H140  1  0.91690000  0.19260000  0.14530000  1
  H  H141  1  0.10950000  0.80740000  0.64530000  1
  H  H142  1  0.65370000  0.71360000  0.53270000  1
  H  H143  1  0.36730000  0.28640000  0.03270000  1
  H  H144  1  0.60500000  0.79680000  0.88590000  1
  H  H145  1  0.40180000  0.20320000  0.38590000  1
  K  K146  1  0.26489000  0.47022000  0.75000000  1
  K  K147  1  0.73511000  0.52978000  0.25000000  1
  N  N148  1  0.96834000  0.94692000  0.94240000  1
  N  N149  1  0.91526000  0.05308000  0.44240000  1
  N  N150  1  0.83949000  0.90002000  0.49928000  1
  N  N151  1  0.73951000  0.09998000  0.99928000  1
  N  N152  1  0.16051000  0.09998000  0.50072000  1
  N  N153  1  0.26049000  0.90002000  0.00072000  1
  N  N154  1  0.03166000  0.05308000  0.05760000  1
  N  N155  1  0.08474000  0.94692000  0.55760000  1
  Ni  Ni156  1  0.00000000  0.00000000  0.00000000  1
  Ni  Ni157  1  0.00000000  0.00000000  0.50000000  1
  O  O158  1  0.08478000  0.79384000  0.20055000  1
  O  O159  1  0.87862000  0.20616000  0.70055000  1
  O  O160  1  0.09200000  0.58060000  0.29397000  1
  O  O161  1  0.67260000  0.41940000  0.79397000  1
  O  O162  1  0.08451667  0.49760000  0.20410000  1
  O  O163  1  0.58211667  0.50240000  0.70410000  1
  O  O164  1  0.11968000  0.28044000  0.76653000  1
  O  O165  1  0.40012000  0.71956000  0.26653000  1
  O  O166  1  0.88032000  0.71956000  0.23347000  1
  O  O167  1  0.59988000  0.28044000  0.73347000  1
  O  O168  1  0.91548333  0.50240000  0.79590000  1
  O  O169  1  0.41788333  0.49760000  0.29590000  1
  O  O170  1  0.90800000  0.41940000  0.70603000  1
  O  O171  1  0.32740000  0.58060000  0.20603000  1
  O  O172  1  0.91522000  0.20616000  0.79945000  1
  O  O173  1  0.12138000  0.79384000  0.29945000  1
