# generated using pymatgen
data_MgH3(CO2)3
_symmetry_space_group_name_H-M   'P 1'
_cell_length_a   7.27740000
_cell_length_b   7.27740000
_cell_length_c   8.20940000
_cell_angle_alpha   90.00000000
_cell_angle_beta   90.00000000
_cell_angle_gamma   120.00000000
_symmetry_Int_Tables_number   1
_chemical_formula_structural   MgH3(CO2)3
_chemical_formula_sum   'Mg2 H6 C6 O12'
_cell_volume   376.52562804
_cell_formula_units_Z   2
loop_
 _symmetry_equiv_pos_site_id
 _symmetry_equiv_pos_as_xyz
  1  'x, y, z'
loop_
 _atom_site_type_symbol
 _atom_site_label
 _atom_site_symmetry_multiplicity
 _atom_site_fract_x
 _atom_site_fract_y
 _atom_site_fract_z
 _atom_site_occupancy
  Mg  Mg0  1  0.66666667  0.33333333  0.75000000  1
  Mg  Mg1  1  0.33333333  0.66666667  0.25000000  1
  H  H2  1  1.00000000  0.43270000  0.50000000  1
  H  H3  1  1.00000000  0.56730000  0.00000000  1
  H  H4  1  0.56730000  0.56730000  0.50000000  1
  H  H5  1  0.56730000  0.00000000  0.00000000  1
  H  H6  1  0.43270000  0.43270000  1.00000000  1
  H  H7  1  0.43270000  0.00000000  0.50000000  1
  C  C8  1  1.00000000  0.43950000  0.00000000  1
  C  C9  1  0.00000000  0.56050000  0.50000000  1
  C  C10  1  0.56050000  0.56050000  1.00000000  1
  C  C11  1  0.56050000  0.00000000  0.50000000  1
  C  C12  1  0.43950000  0.43950000  0.50000000  1
  C  C13  1  0.43950000  0.00000000  1.00000000  1
  O  O14  1  0.89066000  0.31033000  0.89413000  1
  O  O15  1  0.89066000  0.58033000  0.60587000  1
  O  O16  1  0.68967000  0.10934000  0.60587000  1
  O  O17  1  0.68967000  0.58033000  0.89413000  1
  O  O18  1  0.58033000  0.68967000  0.10587000  1
  O  O19  1  0.58033000  0.89066000  0.39413000  1
  O  O20  1  0.41967000  0.10934000  0.89413000  1
  O  O21  1  0.41967000  0.31033000  0.60587000  1
  O  O22  1  0.31033000  0.41967000  0.39413000  1
  O  O23  1  0.31033000  0.89066000  0.10587000  1
  O  O24  1  0.10934000  0.41967000  0.10587000  1
  O  O25  1  0.10934000  0.68967000  0.39413000  1
