# generated using pymatgen
data_CuH16C16(N6O)2
_symmetry_space_group_name_H-M   'P 1'
_cell_length_a   19.33140000
_cell_length_b   23.14238864
_cell_length_c   23.14238864
_cell_angle_alpha   108.67977959
_cell_angle_beta   90.00000000
_cell_angle_gamma   90.00000000
_symmetry_Int_Tables_number   1
_chemical_formula_structural   CuH16C16(N6O)2
_chemical_formula_sum   'Cu8 H128 C128 N96 O16'
_cell_volume   9807.94275237
_cell_formula_units_Z   8
loop_
 _symmetry_equiv_pos_site_id
 _symmetry_equiv_pos_as_xyz
  1  'x, y, z'
loop_
 _atom_site_type_symbol
 _atom_site_label
 _atom_site_symmetry_multiplicity
 _atom_site_fract_x
 _atom_site_fract_y
 _atom_site_fract_z
 _atom_site_occupancy
  C  C0  1  0.13800000  0.89280000  0.98120000  1
  C  C1  1  0.63800000  0.48120000  0.39280000  1
  C  C2  1  0.36200000  0.39280000  0.48120000  1
  C  C3  1  0.86200000  0.98120000  0.89280000  1
  C  C4  1  0.75630000  0.85247000  0.97953000  1
  C  C5  1  0.25630000  0.47953000  0.35247000  1
  C  C6  1  0.74370000  0.35247000  0.47953000  1
  C  C7  1  0.24370000  0.97953000  0.85247000  1
  C  C8  1  0.24450000  0.88590000  0.93570000  1
  C  C9  1  0.74450000  0.43570000  0.38590000  1
  C  C10  1  0.25550000  0.38590000  0.43570000  1
  C  C11  1  0.75550000  0.93570000  0.88590000  1
  C  C12  1  0.13260000  0.83014000  0.96686000  1
  C  C13  1  0.63260000  0.46686000  0.33014000  1
  C  C14  1  0.36740000  0.33014000  0.46686000  1
  C  C15  1  0.86740000  0.96686000  0.83014000  1
  C  C16  1  0.50310000  0.69250000  0.09510000  1
  C  C17  1  0.00310000  0.59510000  0.19250000  1
  C  C18  1  0.99690000  0.19250000  0.59510000  1
  C  C19  1  0.49690000  0.09510000  0.69250000  1
  C  C20  1  0.56060000  0.71390000  0.07250000  1
  C  C21  1  0.06060000  0.57250000  0.21390000  1
  C  C22  1  0.93940000  0.21390000  0.57250000  1
  C  C23  1  0.43940000  0.07250000  0.71390000  1
  C  C24  1  0.99920000  0.74470000  0.02490000  1
  C  C25  1  0.49920000  0.52490000  0.24470000  1
  C  C26  1  0.50080000  0.24470000  0.52490000  1
  C  C27  1  0.00080000  0.02490000  0.74470000  1
  C  C28  1  0.68210000  0.74243000  0.00357000  1
  C  C29  1  0.18210000  0.50357000  0.24243000  1
  C  C30  1  0.81790000  0.24243000  0.50357000  1
  C  C31  1  0.31790000  0.00357000  0.74243000  1
  C  C32  1  0.24150000  0.82330000  0.91670000  1
  C  C33  1  0.74150000  0.41670000  0.32330000  1
  C  C34  1  0.25850000  0.32330000  0.41670000  1
  C  C35  1  0.75850000  0.91670000  0.82330000  1
  C  C36  1  0.06300000  0.74984000  0.98696000  1
  C  C37  1  0.56300000  0.48696000  0.24984000  1
  C  C38  1  0.43700000  0.24984000  0.48696000  1
  C  C39  1  0.93700000  0.98696000  0.74984000  1
  C  C40  1  0.18550000  0.79460000  0.93280000  1
  C  C41  1  0.68550000  0.43280000  0.29460000  1
  C  C42  1  0.31450000  0.29460000  0.43280000  1
  C  C43  1  0.81450000  0.93280000  0.79460000  1
  C  C44  1  0.74930000  0.73890000  0.96810000  1
  C  C45  1  0.24930000  0.46810000  0.23890000  1
  C  C46  1  0.75070000  0.23890000  0.46810000  1
  C  C47  1  0.25070000  0.96810000  0.73890000  1
  C  C48  1  0.48860000  0.63052000  0.07488000  1
  C  C49  1  0.98860000  0.57488000  0.13052000  1
  C  C50  1  0.01140000  0.13052000  0.57488000  1
  C  C51  1  0.51140000  0.07488000  0.63052000  1
  C  C52  1  0.60090000  0.67208000  0.03132000  1
  C  C53  1  0.10090000  0.53132000  0.17208000  1
  C  C54  1  0.89910000  0.17208000  0.53132000  1
  C  C55  1  0.39910000  0.03132000  0.67208000  1
  C  C56  1  0.91270000  0.66509000  0.00751000  1
  C  C57  1  0.41270000  0.50751000  0.16509000  1
  C  C58  1  0.58730000  0.16509000  0.50751000  1
  C  C59  1  0.08730000  0.00751000  0.66509000  1
  C  C60  1  0.58290000  0.61056000  0.01224000  1
  C  C61  1  0.08290000  0.51224000  0.11056000  1
  C  C62  1  0.91710000  0.11056000  0.51224000  1
  C  C63  1  0.41710000  0.01224000  0.61056000  1
  C  C64  1  0.91710000  0.48776000  0.88944000  1
  C  C65  1  0.41710000  0.38944000  0.98776000  1
  C  C66  1  0.58290000  0.98776000  0.38944000  1
  C  C67  1  0.08290000  0.88944000  0.48776000  1
  C  C68  1  0.58730000  0.49249000  0.83491000  1
  C  C69  1  0.08730000  0.33491000  0.99249000  1
  C  C70  1  0.91270000  0.99249000  0.33491000  1
  C  C71  1  0.41270000  0.83491000  0.49249000  1
  C  C72  1  0.89910000  0.46868000  0.82792000  1
  C  C73  1  0.39910000  0.32792000  0.96868000  1
  C  C74  1  0.60090000  0.96868000  0.32792000  1
  C  C75  1  0.10090000  0.82792000  0.46868000  1
  C  C76  1  0.01140000  0.42512000  0.86948000  1
  C  C77  1  0.51140000  0.36948000  0.92512000  1
  C  C78  1  0.48860000  0.92512000  0.36948000  1
  C  C79  1  0.98860000  0.86948000  0.42512000  1
  C  C80  1  0.75070000  0.53190000  0.76110000  1
  C  C81  1  0.25070000  0.26110000  0.03190000  1
  C  C82  1  0.74930000  0.03190000  0.26110000  1
  C  C83  1  0.24930000  0.76110000  0.53190000  1
  C  C84  1  0.31450000  0.56720000  0.70540000  1
  C  C85  1  0.81450000  0.20540000  0.06720000  1
  C  C86  1  0.18550000  0.06720000  0.20540000  1
  C  C87  1  0.68550000  0.70540000  0.56720000  1
  C  C88  1  0.43700000  0.51304000  0.75016000  1
  C  C89  1  0.93700000  0.25016000  0.01304000  1
  C  C90  1  0.06300000  0.01304000  0.25016000  1
  C  C91  1  0.56300000  0.75016000  0.51304000  1
  C  C92  1  0.25850000  0.58330000  0.67670000  1
  C  C93  1  0.75850000  0.17670000  0.08330000  1
  C  C94  1  0.24150000  0.08330000  0.17670000  1
  C  C95  1  0.74150000  0.67670000  0.58330000  1
  C  C96  1  0.81790000  0.49643000  0.75757000  1
  C  C97  1  0.31790000  0.25757000  0.99643000  1
  C  C98  1  0.68210000  0.99643000  0.25757000  1
  C  C99  1  0.18210000  0.75757000  0.49643000  1
  C  C100  1  0.50080000  0.47510000  0.75530000  1
  C  C101  1  0.00080000  0.25530000  0.97510000  1
  C  C102  1  0.99920000  0.97510000  0.25530000  1
  C  C103  1  0.49920000  0.75530000  0.47510000  1
  C  C104  1  0.93940000  0.42750000  0.78610000  1
  C  C105  1  0.43940000  0.28610000  0.92750000  1
  C  C106  1  0.56060000  0.92750000  0.28610000  1
  C  C107  1  0.06060000  0.78610000  0.42750000  1
  C  C108  1  0.99690000  0.40490000  0.80750000  1
  C  C109  1  0.49690000  0.30750000  0.90490000  1
  C  C110  1  0.50310000  0.90490000  0.30750000  1
  C  C111  1  0.00310000  0.80750000  0.40490000  1
  C  C112  1  0.36740000  0.53314000  0.66986000  1
  C  C113  1  0.86740000  0.16986000  0.03314000  1
  C  C114  1  0.13260000  0.03314000  0.16986000  1
  C  C115  1  0.63260000  0.66986000  0.53314000  1
  C  C116  1  0.25550000  0.56430000  0.61410000  1
  C  C117  1  0.75550000  0.11410000  0.06430000  1
  C  C118  1  0.24450000  0.06430000  0.11410000  1
  C  C119  1  0.74450000  0.61410000  0.56430000  1
  C  C120  1  0.74370000  0.52047000  0.64753000  1
  C  C121  1  0.24370000  0.14753000  0.02047000  1
  C  C122  1  0.75630000  0.02047000  0.14753000  1
  C  C123  1  0.25630000  0.64753000  0.52047000  1
  C  C124  1  0.36200000  0.51880000  0.60720000  1
  C  C125  1  0.86200000  0.10720000  0.01880000  1
  C  C126  1  0.13800000  0.01880000  0.10720000  1
  C  C127  1  0.63800000  0.60720000  0.51880000  1
  Cu  Cu128  1  0.80491000  0.98616000  0.01384000  1
  Cu  Cu129  1  0.30491000  0.51384000  0.48616000  1
  Cu  Cu130  1  0.69509000  0.48616000  0.51384000  1
  Cu  Cu131  1  0.19509000  0.01384000  0.98616000  1
  Cu  Cu132  1  0.00000000  0.50000000  0.00000000  1
  Cu  Cu133  1  0.50000000  0.50000000  0.00000000  1
  Cu  Cu134  1  0.00000000  1.00000000  0.50000000  1
  Cu  Cu135  1  0.50000000  1.00000000  0.50000000  1
  H  H136  1  0.10110000  0.91660000  0.00140000  1
  H  H137  1  0.60110000  0.50140000  0.41660000  1
  H  H138  1  0.39890000  0.41660000  0.50140000  1
  H  H139  1  0.89890000  0.00140000  0.91660000  1
  H  H140  1  0.47440000  0.71950000  0.12350000  1
  H  H141  1  0.97440000  0.62350000  0.21950000  1
  H  H142  1  0.02560000  0.21950000  0.62350000  1
  H  H143  1  0.52560000  0.12350000  0.71950000  1
  H  H144  1  0.57130000  0.75520000  0.08480000  1
  H  H145  1  0.07130000  0.58480000  0.25520000  1
  H  H146  1  0.92870000  0.25520000  0.58480000  1
  H  H147  1  0.42870000  0.08480000  0.75520000  1
  H  H148  1  0.04230000  0.83410000  0.00470000  1
  H  H149  1  0.54230000  0.50470000  0.33410000  1
  H  H150  1  0.45770000  0.33410000  0.50470000  1
  H  H151  1  0.95770000  0.00470000  0.83410000  1
  H  H152  1  0.00940000  0.76340000  0.06800000  1
  H  H153  1  0.50940000  0.56800000  0.26340000  1
  H  H154  1  0.49060000  0.26340000  0.56800000  1
  H  H155  1  0.99060000  0.06800000  0.76340000  1
  H  H156  1  0.28350000  0.90460000  0.92600000  1
  H  H157  1  0.78350000  0.42600000  0.40460000  1
  H  H158  1  0.21650000  0.40460000  0.42600000  1
  H  H159  1  0.71650000  0.92600000  0.90460000  1
  H  H160  1  0.71360000  0.85750000  0.96330000  1
  H  H161  1  0.21360000  0.46330000  0.35750000  1
  H  H162  1  0.78640000  0.35750000  0.46330000  1
  H  H163  1  0.28640000  0.96330000  0.85750000  1
  H  H164  1  0.96070000  0.76660000  0.01480000  1
  H  H165  1  0.46070000  0.51480000  0.26660000  1
  H  H166  1  0.53930000  0.26660000  0.51480000  1
  H  H167  1  0.03930000  0.01480000  0.76660000  1
  H  H168  1  0.45000000  0.61660000  0.09040000  1
  H  H169  1  0.95000000  0.59040000  0.11660000  1
  H  H170  1  0.05000000  0.11660000  0.59040000  1
  H  H171  1  0.55000000  0.09040000  0.61660000  1
  H  H172  1  0.87530000  0.69050000  0.00790000  1
  H  H173  1  0.37530000  0.50790000  0.19050000  1
  H  H174  1  0.62470000  0.19050000  0.50790000  1
  H  H175  1  0.12470000  0.00790000  0.69050000  1
  H  H176  1  0.27700000  0.80020000  0.89320000  1
  H  H177  1  0.77700000  0.39320000  0.30020000  1
  H  H178  1  0.22300000  0.30020000  0.39320000  1
  H  H179  1  0.72300000  0.89320000  0.80020000  1
  H  H180  1  0.78090000  0.71050000  0.97750000  1
  H  H181  1  0.28090000  0.47750000  0.21050000  1
  H  H182  1  0.71910000  0.21050000  0.47750000  1
  H  H183  1  0.21910000  0.97750000  0.71050000  1
  H  H184  1  0.18320000  0.75220000  0.92100000  1
  H  H185  1  0.68320000  0.42100000  0.25220000  1
  H  H186  1  0.31680000  0.25220000  0.42100000  1
  H  H187  1  0.81680000  0.92100000  0.75220000  1
  H  H188  1  0.73990000  0.72420000  0.92460000  1
  H  H189  1  0.23990000  0.42460000  0.22420000  1
  H  H190  1  0.76010000  0.22420000  0.42460000  1
  H  H191  1  0.26010000  0.92460000  0.72420000  1
  H  H192  1  0.68920000  0.65620000  0.98740000  1
  H  H193  1  0.18920000  0.48740000  0.15620000  1
  H  H194  1  0.81080000  0.15620000  0.48740000  1
  H  H195  1  0.31080000  0.98740000  0.65620000  1
  H  H196  1  0.61020000  0.58280000  0.98320000  1
  H  H197  1  0.11020000  0.48320000  0.08280000  1
  H  H198  1  0.88980000  0.08280000  0.48320000  1
  H  H199  1  0.38980000  0.98320000  0.58280000  1
  H  H200  1  0.88980000  0.51680000  0.91720000  1
  H  H201  1  0.38980000  0.41720000  0.01680000  1
  H  H202  1  0.61020000  0.01680000  0.41720000  1
  H  H203  1  0.11020000  0.91720000  0.51680000  1
  H  H204  1  0.81080000  0.51260000  0.84380000  1
  H  H205  1  0.31080000  0.34380000  0.01260000  1
  H  H206  1  0.68920000  0.01260000  0.34380000  1
  H  H207  1  0.18920000  0.84380000  0.51260000  1
  H  H208  1  0.76010000  0.57540000  0.77580000  1
  H  H209  1  0.26010000  0.27580000  0.07540000  1
  H  H210  1  0.73990000  0.07540000  0.27580000  1
  H  H211  1  0.23990000  0.77580000  0.57540000  1
  H  H212  1  0.31680000  0.57900000  0.74780000  1
  H  H213  1  0.81680000  0.24780000  0.07900000  1
  H  H214  1  0.18320000  0.07900000  0.24780000  1
  H  H215  1  0.68320000  0.74780000  0.57900000  1
  H  H216  1  0.71910000  0.52250000  0.78950000  1
  H  H217  1  0.21910000  0.28950000  0.02250000  1
  H  H218  1  0.78090000  0.02250000  0.28950000  1
  H  H219  1  0.28090000  0.78950000  0.52250000  1
  H  H220  1  0.22300000  0.60680000  0.69980000  1
  H  H221  1  0.72300000  0.19980000  0.10680000  1
  H  H222  1  0.27700000  0.10680000  0.19980000  1
  H  H223  1  0.77700000  0.69980000  0.60680000  1
  H  H224  1  0.62470000  0.49210000  0.80950000  1
  H  H225  1  0.12470000  0.30950000  0.99210000  1
  H  H226  1  0.87530000  0.99210000  0.30950000  1
  H  H227  1  0.37530000  0.80950000  0.49210000  1
  H  H228  1  0.05000000  0.40960000  0.88340000  1
  H  H229  1  0.55000000  0.38340000  0.90960000  1
  H  H230  1  0.45000000  0.90960000  0.38340000  1
  H  H231  1  0.95000000  0.88340000  0.40960000  1
  H  H232  1  0.53930000  0.48520000  0.73340000  1
  H  H233  1  0.03930000  0.23340000  0.98520000  1
  H  H234  1  0.96070000  0.98520000  0.23340000  1
  H  H235  1  0.46070000  0.73340000  0.48520000  1
  H  H236  1  0.78640000  0.53670000  0.64250000  1
  H  H237  1  0.28640000  0.14250000  0.03670000  1
  H  H238  1  0.71360000  0.03670000  0.14250000  1
  H  H239  1  0.21360000  0.64250000  0.53670000  1
  H  H240  1  0.21650000  0.57400000  0.59540000  1
  H  H241  1  0.71650000  0.09540000  0.07400000  1
  H  H242  1  0.28350000  0.07400000  0.09540000  1
  H  H243  1  0.78350000  0.59540000  0.57400000  1
  H  H244  1  0.49060000  0.43200000  0.73660000  1
  H  H245  1  0.99060000  0.23660000  0.93200000  1
  H  H246  1  0.00940000  0.93200000  0.23660000  1
  H  H247  1  0.50940000  0.73660000  0.43200000  1
  H  H248  1  0.45770000  0.49530000  0.66590000  1
  H  H249  1  0.95770000  0.16590000  0.99530000  1
  H  H250  1  0.04230000  0.99530000  0.16590000  1
  H  H251  1  0.54230000  0.66590000  0.49530000  1
  H  H252  1  0.92870000  0.41520000  0.74480000  1
  H  H253  1  0.42870000  0.24480000  0.91520000  1
  H  H254  1  0.57130000  0.91520000  0.24480000  1
  H  H255  1  0.07130000  0.74480000  0.41520000  1
  H  H256  1  0.02560000  0.37650000  0.78050000  1
  H  H257  1  0.52560000  0.28050000  0.87650000  1
  H  H258  1  0.47440000  0.87650000  0.28050000  1
  H  H259  1  0.97440000  0.78050000  0.37650000  1
  H  H260  1  0.39890000  0.49860000  0.58340000  1
  H  H261  1  0.89890000  0.08340000  0.99860000  1
  H  H262  1  0.10110000  0.99860000  0.08340000  1
  H  H263  1  0.60110000  0.58340000  0.49860000  1
  N  N264  1  0.80300000  0.89489000  0.00091000  1
  N  N265  1  0.30300000  0.50091000  0.39489000  1
  N  N266  1  0.69700000  0.39489000  0.50091000  1
  N  N267  1  0.19700000  0.00091000  0.89489000  1
  N  N268  1  0.19330000  0.92178000  0.96782000  1
  N  N269  1  0.69330000  0.46782000  0.42178000  1
  N  N270  1  0.30670000  0.42178000  0.46782000  1
  N  N271  1  0.80670000  0.96782000  0.92178000  1
  N  N272  1  0.85760000  0.86771000  0.01989000  1
  N  N273  1  0.35760000  0.51989000  0.36771000  1
  N  N274  1  0.64240000  0.36771000  0.51989000  1
  N  N275  1  0.14240000  0.01989000  0.86771000  1
  N  N276  1  0.84490000  0.81061000  0.00959000  1
  N  N277  1  0.34490000  0.50959000  0.31061000  1
  N  N278  1  0.65510000  0.31061000  0.50959000  1
  N  N279  1  0.15510000  0.00959000  0.81061000  1
  N  N280  1  0.07430000  0.80813000  0.98867000  1
  N  N281  1  0.57430000  0.48867000  0.30813000  1
  N  N282  1  0.42570000  0.30813000  0.48867000  1
  N  N283  1  0.92570000  0.98867000  0.80813000  1
  N  N284  1  0.78110000  0.80002000  0.98498000  1
  N  N285  1  0.28110000  0.48498000  0.30002000  1
  N  N286  1  0.71890000  0.30002000  0.48498000  1
  N  N287  1  0.21890000  0.98498000  0.80002000  1
  N  N288  1  0.97990000  0.68172000  0.01348000  1
  N  N289  1  0.47990000  0.51348000  0.18172000  1
  N  N290  1  0.52010000  0.18172000  0.51348000  1
  N  N291  1  0.02010000  0.01348000  0.68172000  1
  N  N292  1  0.66200000  0.68615000  0.00465000  1
  N  N293  1  0.16200000  0.50465000  0.18615000  1
  N  N294  1  0.83800000  0.18615000  0.50465000  1
  N  N295  1  0.33800000  0.00465000  0.68615000  1
  N  N296  1  0.01770000  0.63372000  0.01248000  1
  N  N297  1  0.51770000  0.51248000  0.13372000  1
  N  N298  1  0.48230000  0.13372000  0.51248000  1
  N  N299  1  0.98230000  0.01248000  0.63372000  1
  N  N300  1  0.52730000  0.59031000  0.03449000  1
  N  N301  1  0.02730000  0.53449000  0.09031000  1
  N  N302  1  0.97270000  0.09031000  0.53449000  1
  N  N303  1  0.47270000  0.03449000  0.59031000  1
  N  N304  1  0.90970000  0.60841000  0.00119000  1
  N  N305  1  0.40970000  0.50119000  0.10841000  1
  N  N306  1  0.59030000  0.10841000  0.50119000  1
  N  N307  1  0.09030000  0.00119000  0.60841000  1
  N  N308  1  0.97570000  0.58605000  0.00315000  1
  N  N309  1  0.47570000  0.50315000  0.08605000  1
  N  N310  1  0.52430000  0.08605000  0.50315000  1
  N  N311  1  0.02430000  0.00315000  0.58605000  1
  N  N312  1  0.52430000  0.49685000  0.91395000  1
  N  N313  1  0.02430000  0.41395000  0.99685000  1
  N  N314  1  0.97570000  0.99685000  0.41395000  1
  N  N315  1  0.47570000  0.91395000  0.49685000  1
  N  N316  1  0.59030000  0.49881000  0.89159000  1
  N  N317  1  0.09030000  0.39159000  0.99881000  1
  N  N318  1  0.90970000  0.99881000  0.39159000  1
  N  N319  1  0.40970000  0.89159000  0.49881000  1
  N  N320  1  0.97270000  0.46551000  0.90969000  1
  N  N321  1  0.47270000  0.40969000  0.96551000  1
  N  N322  1  0.52730000  0.96551000  0.40969000  1
  N  N323  1  0.02730000  0.90969000  0.46551000  1
  N  N324  1  0.48230000  0.48752000  0.86628000  1
  N  N325  1  0.98230000  0.36628000  0.98752000  1
  N  N326  1  0.01770000  0.98752000  0.36628000  1
  N  N327  1  0.51770000  0.86628000  0.48752000  1
  N  N328  1  0.83800000  0.49535000  0.81385000  1
  N  N329  1  0.33800000  0.31385000  0.99535000  1
  N  N330  1  0.66200000  0.99535000  0.31385000  1
  N  N331  1  0.16200000  0.81385000  0.49535000  1
  N  N332  1  0.52010000  0.48652000  0.81828000  1
  N  N333  1  0.02010000  0.31828000  0.98652000  1
  N  N334  1  0.97990000  0.98652000  0.31828000  1
  N  N335  1  0.47990000  0.81828000  0.48652000  1
  N  N336  1  0.71890000  0.51502000  0.69998000  1
  N  N337  1  0.21890000  0.19998000  0.01502000  1
  N  N338  1  0.78110000  0.01502000  0.19998000  1
  N  N339  1  0.28110000  0.69998000  0.51502000  1
  N  N340  1  0.42570000  0.51133000  0.69187000  1
  N  N341  1  0.92570000  0.19187000  0.01133000  1
  N  N342  1  0.07430000  0.01133000  0.19187000  1
  N  N343  1  0.57430000  0.69187000  0.51133000  1
  N  N344  1  0.65510000  0.49041000  0.68939000  1
  N  N345  1  0.15510000  0.18939000  0.99041000  1
  N  N346  1  0.84490000  0.99041000  0.18939000  1
  N  N347  1  0.34490000  0.68939000  0.49041000  1
  N  N348  1  0.64240000  0.48011000  0.63229000  1
  N  N349  1  0.14240000  0.13229000  0.98011000  1
  N  N350  1  0.85760000  0.98011000  0.13229000  1
  N  N351  1  0.35760000  0.63229000  0.48011000  1
  N  N352  1  0.30670000  0.53218000  0.57822000  1
  N  N353  1  0.80670000  0.07822000  0.03218000  1
  N  N354  1  0.19330000  0.03218000  0.07822000  1
  N  N355  1  0.69330000  0.57822000  0.53218000  1
  N  N356  1  0.69700000  0.49909000  0.60511000  1
  N  N357  1  0.19700000  0.10511000  0.99909000  1
  N  N358  1  0.80300000  0.99909000  0.10511000  1
  N  N359  1  0.30300000  0.60511000  0.49909000  1
  O  O360  1  0.64890000  0.78898000  0.02522000  1
  O  O361  1  0.14890000  0.52522000  0.28898000  1
  O  O362  1  0.85110000  0.28898000  0.52522000  1
  O  O363  1  0.35110000  0.02522000  0.78898000  1
  O  O364  1  0.09890000  0.70645000  0.96075000  1
  O  O365  1  0.59890000  0.46075000  0.20645000  1
  O  O366  1  0.40110000  0.20645000  0.46075000  1
  O  O367  1  0.90110000  0.96075000  0.70645000  1
  O  O368  1  0.40110000  0.53925000  0.79355000  1
  O  O369  1  0.90110000  0.29355000  0.03925000  1
  O  O370  1  0.09890000  0.03925000  0.29355000  1
  O  O371  1  0.59890000  0.79355000  0.53925000  1
  O  O372  1  0.85110000  0.47478000  0.71102000  1
  O  O373  1  0.35110000  0.21102000  0.97478000  1
  O  O374  1  0.64890000  0.97478000  0.21102000  1
  O  O375  1  0.14890000  0.71102000  0.47478000  1
