# generated using pymatgen
data_Zn9H20(C27O19)2
_symmetry_space_group_name_H-M   'P 1'
_cell_length_a   20.31792070
_cell_length_b   20.31790000
_cell_length_c   20.31790000
_cell_angle_alpha   109.47120000
_cell_angle_beta   109.47124127
_cell_angle_gamma   109.47124127
_symmetry_Int_Tables_number   1
_chemical_formula_structural   Zn9H20(C27O19)2
_chemical_formula_sum   'Zn18 H40 C108 O76'
_cell_volume   6456.76375690
_cell_formula_units_Z   2
loop_
 _symmetry_equiv_pos_site_id
 _symmetry_equiv_pos_as_xyz
  1  'x, y, z'
loop_
 _atom_site_type_symbol
 _atom_site_label
 _atom_site_symmetry_multiplicity
 _atom_site_fract_x
 _atom_site_fract_y
 _atom_site_fract_z
 _atom_site_occupancy
  Zn  Zn0  1  0.42534000  0.53541000  0.47921000  1
  Zn  Zn1  1  0.47921000  0.42534000  0.53541000  1
  Zn  Zn2  1  0.50000000  0.06342000  0.56342000  1
  Zn  Zn3  1  0.94613000  0.52079000  0.05620000  1
  Zn  Zn4  1  0.52079000  0.05620000  0.94613000  1
  Zn  Zn5  1  0.06342000  0.56342000  0.50000000  1
  Zn  Zn6  1  0.05620000  0.94613000  0.52079000  1
  Zn  Zn7  1  0.46459000  0.88993000  0.94380000  1
  Zn  Zn8  1  0.43658000  0.50000000  0.93658000  1
  Zn  Zn9  1  0.56342000  0.50000000  0.06342000  1
  Zn  Zn10  1  0.05387000  0.11007000  0.57466000  1
  Zn  Zn11  1  0.57466000  0.05387000  0.11007000  1
  Zn  Zn12  1  0.93658000  0.43658000  0.50000000  1
  Zn  Zn13  1  0.88993000  0.94380000  0.46459000  1
  Zn  Zn14  1  0.53541000  0.47921000  0.42534000  1
  Zn  Zn15  1  0.50000000  0.93658000  0.43658000  1
  Zn  Zn16  1  0.11007000  0.57466000  0.05387000  1
  Zn  Zn17  1  0.94380000  0.46459000  0.88993000  1
  H  H18  1  0.55912000  0.55912000  0.55912000  1
  H  H19  1  1.00000000  0.44088000  0.00000000  1
  H  H20  1  0.24540000  0.78980000  0.27580000  1
  H  H21  1  0.74170000  0.48910000  0.77400000  1
  H  H22  1  0.47620000  0.77870000  0.54110000  1
  H  H23  1  0.51400000  0.96960000  0.72420000  1
  H  H24  1  0.23760000  0.93510000  0.45890000  1
  H  H25  1  0.03230000  0.74740000  0.25830000  1
  H  H26  1  0.54110000  0.47620000  0.77870000  1
  H  H27  1  0.72420000  0.51400000  0.96960000  1
  H  H28  1  0.48910000  0.77400000  0.74170000  1
  H  H29  1  0.25260000  0.28490000  0.51090000  1
  H  H30  1  0.21020000  0.45560000  0.48600000  1
  H  H31  1  0.74740000  0.25830000  0.03230000  1
  H  H32  1  0.93510000  0.45890000  0.23760000  1
  H  H33  1  0.00000000  0.00000000  0.44088000  1
  H  H34  1  0.78980000  0.27580000  0.24540000  1
  H  H35  1  0.06490000  0.30250000  0.52380000  1
  H  H36  1  0.45890000  0.23760000  0.93510000  1
  H  H37  1  0.54440000  0.75460000  0.03040000  1
  H  H38  1  0.25830000  0.03230000  0.74740000  1
  H  H39  1  0.71510000  0.96770000  0.22600000  1
  H  H40  1  0.27580000  0.24540000  0.78980000  1
  H  H41  1  0.69750000  0.76240000  0.22130000  1
  H  H42  1  0.22130000  0.69750000  0.76240000  1
  H  H43  1  0.96960000  0.72420000  0.51400000  1
  H  H44  1  0.44088000  1.00000000  1.00000000  1
  H  H45  1  0.77870000  0.54110000  0.47620000  1
  H  H46  1  0.77400000  0.74170000  0.48910000  1
  H  H47  1  0.03040000  0.54440000  0.75460000  1
  H  H48  1  0.22600000  0.71510000  0.96770000  1
  H  H49  1  0.96770000  0.22600000  0.71510000  1
  H  H50  1  0.45560000  0.48600000  0.21020000  1
  H  H51  1  0.30250000  0.52380000  0.06490000  1
  H  H52  1  0.51090000  0.25260000  0.28490000  1
  H  H53  1  0.52380000  0.06490000  0.30250000  1
  H  H54  1  0.75460000  0.03040000  0.54440000  1
  H  H55  1  0.76240000  0.22130000  0.69750000  1
  H  H56  1  0.28490000  0.51090000  0.25260000  1
  H  H57  1  0.48600000  0.21020000  0.45560000  1
  C  C58  1  0.34508000  0.92014000  0.42114000  1
  C  C59  1  0.59880000  0.46340000  0.67620000  1
  C  C60  1  0.49900000  0.92394000  0.57886000  1
  C  C61  1  0.21583000  0.80402000  0.29839000  1
  C  C62  1  0.09151000  0.68127000  0.17488000  1
  C  C63  1  0.71246000  0.49055000  0.80075000  1
  C  C64  1  0.82512000  0.50639000  0.91663000  1
  C  C65  1  0.48328000  0.80374000  0.59250000  1
  C  C66  1  0.25602000  0.87065000  0.37403000  1
  C  C67  1  0.13194000  0.75741000  0.25489000  1
  C  C68  1  0.63566000  0.48037000  0.76201000  1
  C  C69  1  0.49662000  0.88199000  0.62597000  1
  C  C70  1  0.74511000  0.50252000  0.87705000  1
  C  C71  1  0.46340000  0.67620000  0.59880000  1
  C  C72  1  0.48037000  0.76201000  0.63566000  1
  C  C73  1  0.31873000  0.41024000  0.49361000  1
  C  C74  1  0.50563000  0.91744000  0.70161000  1
  C  C75  1  0.21124000  0.89078000  0.40750000  1
  C  C76  1  0.08829000  0.77809000  0.28754000  1
  C  C77  1  0.59250000  0.48328000  0.80374000  1
  C  C78  1  0.86460000  0.40120000  0.07740000  1
  C  C79  1  0.70161000  0.50563000  0.91744000  1
  C  C80  1  0.49055000  0.80075000  0.71246000  1
  C  C81  1  0.12635000  0.84471000  0.36434000  1
  C  C82  1  0.50252000  0.87705000  0.74511000  1
  C  C83  1  0.24259000  0.37453000  0.49748000  1
  C  C84  1  0.62597000  0.49662000  0.88199000  1
  C  C85  1  0.84471000  0.36434000  0.12635000  1
  C  C86  1  0.22191000  0.31020000  0.50945000  1
  C  C87  1  0.19598000  0.41181000  0.49437000  1
  C  C88  1  0.77809000  0.28754000  0.08829000  1
  C  C89  1  0.50639000  0.91663000  0.82512000  1
  C  C90  1  0.89078000  0.40750000  0.21124000  1
  C  C91  1  0.07740000  0.86460000  0.40120000  1
  C  C92  1  0.57886000  0.49900000  0.92394000  1
  C  C93  1  0.15529000  0.28164000  0.51963000  1
  C  C94  1  0.12935000  0.38537000  0.50338000  1
  C  C95  1  0.75741000  0.25489000  0.13194000  1
  C  C96  1  0.87065000  0.37403000  0.25602000  1
  C  C97  1  0.13540000  0.21280000  0.53660000  1
  C  C98  1  0.10922000  0.32046000  0.51672000  1
  C  C99  1  0.68127000  0.17488000  0.09151000  1
  C  C100  1  0.80402000  0.29839000  0.21583000  1
  C  C101  1  0.07986000  0.42494000  0.50100000  1
  C  C102  1  0.92014000  0.42114000  0.34508000  1
  C  C103  1  0.40120000  0.07740000  0.86460000  1
  C  C104  1  0.36434000  0.12635000  0.84471000  1
  C  C105  1  0.40750000  0.21124000  0.89078000  1
  C  C106  1  0.28754000  0.08829000  0.77809000  1
  C  C107  1  0.58976000  0.90849000  0.08337000  1
  C  C108  1  0.58819000  0.78417000  0.08256000  1
  C  C109  1  0.37403000  0.25602000  0.87065000  1
  C  C110  1  0.62547000  0.86806000  0.12295000  1
  C  C111  1  0.42114000  0.34508000  0.92014000  1
  C  C112  1  0.57506000  0.65492000  0.07606000  1
  C  C113  1  0.25489000  0.13194000  0.75741000  1
  C  C114  1  0.61463000  0.74398000  0.11801000  1
  C  C115  1  0.29839000  0.21583000  0.80402000  1
  C  C116  1  0.17488000  0.09151000  0.68127000  1
  C  C117  1  0.68980000  0.91171000  0.19925000  1
  C  C118  1  0.67954000  0.78876000  0.19626000  1
  C  C119  1  0.71836000  0.87365000  0.23799000  1
  C  C120  1  0.78720000  0.92260000  0.32380000  1
  C  C121  1  0.92394000  0.57886000  0.49900000  1
  C  C122  1  0.07606000  0.57506000  0.65492000  1
  C  C123  1  0.91744000  0.70161000  0.50563000  1
  C  C124  1  0.91663000  0.82512000  0.50639000  1
  C  C125  1  0.19626000  0.67954000  0.78876000  1
  C  C126  1  0.32380000  0.78720000  0.92260000  1
  C  C127  1  0.88199000  0.62597000  0.49662000  1
  C  C128  1  0.87705000  0.74511000  0.50252000  1
  C  C129  1  0.11801000  0.61463000  0.74398000  1
  C  C130  1  0.23799000  0.71836000  0.87365000  1
  C  C131  1  0.42494000  0.50100000  0.07986000  1
  C  C132  1  0.53660000  0.13540000  0.21280000  1
  C  C133  1  0.80374000  0.59250000  0.48328000  1
  C  C134  1  0.90849000  0.08337000  0.58976000  1
  C  C135  1  0.80075000  0.71246000  0.49055000  1
  C  C136  1  0.08256000  0.58819000  0.78417000  1
  C  C137  1  0.19925000  0.68980000  0.91171000  1
  C  C138  1  0.76201000  0.63566000  0.48037000  1
  C  C139  1  0.38537000  0.50338000  0.12935000  1
  C  C140  1  0.12295000  0.62547000  0.86806000  1
  C  C141  1  0.86806000  0.12295000  0.62547000  1
  C  C142  1  0.51963000  0.15529000  0.28164000  1
  C  C143  1  0.91171000  0.19925000  0.68980000  1
  C  C144  1  0.41181000  0.49437000  0.19598000  1
  C  C145  1  0.67620000  0.59880000  0.46340000  1
  C  C146  1  0.32046000  0.51672000  0.10922000  1
  C  C147  1  0.50945000  0.22191000  0.31020000  1
  C  C148  1  0.51672000  0.10922000  0.32046000  1
  C  C149  1  0.78417000  0.08256000  0.58819000  1
  C  C150  1  0.08337000  0.58976000  0.90849000  1
  C  C151  1  0.87365000  0.23799000  0.71836000  1
  C  C152  1  0.92260000  0.32380000  0.78720000  1
  C  C153  1  0.37453000  0.49748000  0.24259000  1
  C  C154  1  0.74398000  0.11801000  0.61463000  1
  C  C155  1  0.28164000  0.51963000  0.15529000  1
  C  C156  1  0.49748000  0.24259000  0.37453000  1
  C  C157  1  0.50338000  0.12935000  0.38537000  1
  C  C158  1  0.78876000  0.19626000  0.67954000  1
  C  C159  1  0.41024000  0.49361000  0.31873000  1
  C  C160  1  0.31020000  0.50945000  0.22191000  1
  C  C161  1  0.49361000  0.31873000  0.41024000  1
  C  C162  1  0.49437000  0.19598000  0.41181000  1
  C  C163  1  0.65492000  0.07606000  0.57506000  1
  C  C164  1  0.21280000  0.53660000  0.13540000  1
  C  C165  1  0.50100000  0.07986000  0.42494000  1
  O  O166  1  0.51092000  0.51092000  0.51092000  1
  O  O167  1  0.00000000  0.48908000  1.00000000  1
  O  O168  1  0.63648000  0.46294000  0.64152000  1
  O  O169  1  0.38107000  0.89602000  0.38737000  1
  O  O170  1  0.13509000  0.67116000  0.14507000  1
  O  O171  1  0.85634000  0.49250000  0.87438000  1
  O  O172  1  0.49059000  0.88844000  0.51123000  1
  O  O173  1  0.45253000  0.64591000  0.52832000  1
  O  O174  1  0.50865000  0.99370000  0.61263000  1
  O  O175  1  0.37721000  0.97936000  0.48877000  1
  O  O176  1  0.52832000  0.45253000  0.64591000  1
  O  O177  1  0.01804000  0.63616000  0.14366000  1
  O  O178  1  0.85493000  0.52609000  0.99002000  1
  O  O179  1  0.36384000  0.38188000  0.50750000  1
  O  O180  1  0.32884000  0.46393000  0.47391000  1
  O  O181  1  0.46294000  0.64152000  0.63648000  1
  O  O182  1  0.82646000  0.36352000  0.00504000  1
  O  O183  1  0.92421000  0.47168000  0.11759000  1
  O  O184  1  0.52609000  0.99002000  0.85493000  1
  O  O185  1  0.11759000  0.92421000  0.47168000  1
  O  O186  1  0.00504000  0.82646000  0.36352000  1
  O  O187  1  0.17354000  0.17858000  0.53706000  1
  O  O188  1  0.49250000  0.87438000  0.85634000  1
  O  O189  1  0.51123000  0.49059000  0.88844000  1
  O  O190  1  0.61263000  0.50865000  0.99370000  1
  O  O191  1  0.63616000  0.14366000  0.01804000  1
  O  O192  1  0.10398000  0.48505000  0.49135000  1
  O  O193  1  0.97936000  0.48877000  0.37721000  1
  O  O194  1  0.47168000  0.11759000  0.92421000  1
  O  O195  1  0.36352000  0.00504000  0.82646000  1
  O  O196  1  0.67116000  0.14507000  0.13509000  1
  O  O197  1  0.07579000  0.19338000  0.54747000  1
  O  O198  1  0.53607000  0.86491000  0.00998000  1
  O  O199  1  0.89602000  0.38737000  0.38107000  1
  O  O200  1  0.02064000  0.39785000  0.50941000  1
  O  O201  1  1.00000000  1.00000000  0.48908000  1
  O  O202  1  0.48877000  0.37721000  0.97936000  1
  O  O203  1  0.51495000  0.61893000  0.00630000  1
  O  O204  1  0.14366000  0.01804000  0.63616000  1
  O  O205  1  0.61812000  0.98196000  0.12562000  1
  O  O206  1  0.38737000  0.38107000  0.89602000  1
  O  O207  1  0.60215000  0.62279000  0.11156000  1
  O  O208  1  0.48908000  1.00000000  1.00000000  1
  O  O209  1  0.11156000  0.60215000  0.62279000  1
  O  O210  1  0.99370000  0.61263000  0.50865000  1
  O  O211  1  0.14507000  0.13509000  0.67116000  1
  O  O212  1  0.35409000  0.80662000  0.88241000  1
  O  O213  1  0.99002000  0.85493000  0.52609000  1
  O  O214  1  0.82142000  0.99496000  0.35848000  1
  O  O215  1  0.80662000  0.88241000  0.35409000  1
  O  O216  1  0.88844000  0.51123000  0.49059000  1
  O  O217  1  0.00630000  0.51495000  0.61893000  1
  O  O218  1  0.87438000  0.85634000  0.49250000  1
  O  O219  1  0.48505000  0.49135000  0.10398000  1
  O  O220  1  0.39785000  0.50941000  0.02064000  1
  O  O221  1  0.98196000  0.12562000  0.61812000  1
  O  O222  1  0.35848000  0.82142000  0.99496000  1
  O  O223  1  0.53706000  0.17354000  0.17858000  1
  O  O224  1  0.54747000  0.07579000  0.19338000  1
  O  O225  1  0.86491000  0.00998000  0.53607000  1
  O  O226  1  0.64591000  0.52832000  0.45253000  1
  O  O227  1  0.64152000  0.63648000  0.46294000  1
  O  O228  1  0.99496000  0.35848000  0.82142000  1
  O  O229  1  0.00998000  0.53607000  0.86491000  1
  O  O230  1  0.12562000  0.61812000  0.98196000  1
  O  O231  1  0.46393000  0.47391000  0.32884000  1
  O  O232  1  0.50750000  0.36384000  0.38188000  1
  O  O233  1  0.19338000  0.54747000  0.07579000  1
  O  O234  1  0.50941000  0.02064000  0.39785000  1
  O  O235  1  0.61893000  0.00630000  0.51495000  1
  O  O236  1  0.88241000  0.35409000  0.80662000  1
  O  O237  1  0.62279000  0.11156000  0.60215000  1
  O  O238  1  0.38188000  0.50750000  0.36384000  1
  O  O239  1  0.47391000  0.32884000  0.46393000  1
  O  O240  1  0.49135000  0.10398000  0.48505000  1
  O  O241  1  0.17858000  0.53706000  0.17354000  1
