# generated using pymatgen
data_ErH6(C3O2)3
_symmetry_space_group_name_H-M   'P 1'
_cell_length_a   6.76700000
_cell_length_b   11.23100000
_cell_length_c   19.74253871
_cell_angle_alpha   106.52537861
_cell_angle_beta   90.92029820
_cell_angle_gamma   90.00000000
_symmetry_Int_Tables_number   1
_chemical_formula_structural   ErH6(C3O2)3
_chemical_formula_sum   'Er4 H24 C36 O24'
_cell_volume   1438.25727803
_cell_formula_units_Z   4
loop_
 _symmetry_equiv_pos_site_id
 _symmetry_equiv_pos_as_xyz
  1  'x, y, z'
loop_
 _atom_site_type_symbol
 _atom_site_label
 _atom_site_symmetry_multiplicity
 _atom_site_fract_x
 _atom_site_fract_y
 _atom_site_fract_z
 _atom_site_occupancy
  Er  Er0  1  0.80984000  0.33879000  0.25904000  1
  Er  Er1  1  0.69016000  0.07975000  0.74096000  1
  Er  Er2  1  0.30984000  0.92025000  0.25904000  1
  Er  Er3  1  0.19016000  0.66121000  0.74096000  1
  H  H4  1  0.98510000  0.24830000  0.43280000  1
  H  H5  1  0.97160000  0.83320000  0.03580000  1
  H  H6  1  0.90510000  0.92500000  0.93760000  1
  H  H7  1  0.88040000  0.77240000  0.45380000  1
  H  H8  1  0.87100000  0.98690000  0.57380000  1
  H  H9  1  0.82790000  0.51900000  0.53000000  1
  H  H10  1  0.67210000  0.98900000  0.47000000  1
  H  H11  1  0.62900000  0.41310000  0.42620000  1
  H  H12  1  0.61960000  0.31860000  0.54620000  1
  H  H13  1  0.59490000  0.98740000  0.06240000  1
  H  H14  1  0.52840000  0.79740000  0.96420000  1
  H  H15  1  0.51490000  0.81550000  0.56720000  1
  H  H16  1  0.48510000  0.18450000  0.43280000  1
  H  H17  1  0.47160000  0.20260000  0.03580000  1
  H  H18  1  0.40510000  0.01260000  0.93760000  1
  H  H19  1  0.38040000  0.68140000  0.45380000  1
  H  H20  1  0.37100000  0.58690000  0.57380000  1
  H  H21  1  0.32790000  0.01100000  0.53000000  1
  H  H22  1  0.17210000  0.48100000  0.47000000  1
  H  H23  1  0.12900000  0.01310000  0.42620000  1
  H  H24  1  0.11960000  0.22760000  0.54620000  1
  H  H25  1  0.09490000  0.07500000  0.06240000  1
  H  H26  1  0.02840000  0.16680000  0.96420000  1
  H  H27  1  0.01490000  0.75170000  0.56720000  1
  C  C28  1  0.98540000  0.83440000  0.58940000  1
  C  C29  1  0.96510000  0.09402000  0.93864000  1
  C  C30  1  0.96230000  0.11198000  0.33516000  1
  C  C31  1  0.96120000  0.99879000  0.96518000  1
  C  C32  1  0.89530000  0.90335000  0.55190000  1
  C  C33  1  0.87240000  0.08908000  0.86976000  1
  C  C34  1  0.84280000  0.49202000  0.63064000  1
  C  C35  1  0.83530000  0.85078000  0.47816000  1
  C  C36  1  0.78170000  0.46642000  0.55524000  1
  C  C37  1  0.71830000  0.91118000  0.44476000  1
  C  C38  1  0.66470000  0.37262000  0.52184000  1
  C  C39  1  0.65720000  0.86138000  0.36936000  1
  C  C40  1  0.62760000  0.21932000  0.13024000  1
  C  C41  1  0.60470000  0.35145000  0.44810000  1
  C  C42  1  0.53880000  0.03361000  0.03482000  1
  C  C43  1  0.53770000  0.77682000  0.66484000  1
  C  C44  1  0.53490000  0.15538000  0.06136000  1
  C  C45  1  0.51460000  0.24500000  0.41060000  1
  C  C46  1  0.48540000  0.75500000  0.58940000  1
  C  C47  1  0.46510000  0.84462000  0.93864000  1
  C  C48  1  0.46230000  0.22318000  0.33516000  1
  C  C49  1  0.46120000  0.96639000  0.96518000  1
  C  C50  1  0.39530000  0.64855000  0.55190000  1
  C  C51  1  0.37240000  0.78068000  0.86976000  1
  C  C52  1  0.34280000  0.13862000  0.63064000  1
  C  C53  1  0.33530000  0.62738000  0.47816000  1
  C  C54  1  0.28170000  0.08882000  0.55524000  1
  C  C55  1  0.21830000  0.53358000  0.44476000  1
  C  C56  1  0.16470000  0.14922000  0.52184000  1
  C  C57  1  0.15720000  0.50798000  0.36936000  1
  C  C58  1  0.12760000  0.91092000  0.13024000  1
  C  C59  1  0.10470000  0.09665000  0.44810000  1
  C  C60  1  0.03880000  0.00121000  0.03482000  1
  C  C61  1  0.03770000  0.88802000  0.66484000  1
  C  C62  1  0.03490000  0.90598000  0.06136000  1
  C  C63  1  0.01460000  0.16560000  0.41060000  1
  O  O64  1  0.99080000  0.56448000  0.64876000  1
  O  O65  1  0.98900000  0.99750000  0.69780000  1
  O  O66  1  0.88640000  0.17975000  0.84470000  1
  O  O67  1  0.87020000  0.18160000  0.30700000  1
  O  O68  1  0.77730000  0.99412000  0.83524000  1
  O  O69  1  0.75720000  0.44022000  0.66984000  1
  O  O70  1  0.74280000  0.77038000  0.33016000  1
  O  O71  1  0.72270000  0.15888000  0.16476000  1
  O  O72  1  0.62980000  0.87460000  0.69300000  1
  O  O73  1  0.61360000  0.33505000  0.15530000  1
  O  O74  1  0.51100000  0.29970000  0.30220000  1
  O  O75  1  0.50920000  0.91572000  0.35124000  1
  O  O76  1  0.49080000  0.08428000  0.64876000  1
  O  O77  1  0.48900000  0.70030000  0.69780000  1
  O  O78  1  0.38640000  0.66495000  0.84470000  1
  O  O79  1  0.37020000  0.12540000  0.30700000  1
  O  O80  1  0.27730000  0.84112000  0.83524000  1
  O  O81  1  0.25720000  0.22962000  0.66984000  1
  O  O82  1  0.24280000  0.55978000  0.33016000  1
  O  O83  1  0.22270000  0.00588000  0.16476000  1
  O  O84  1  0.12980000  0.81840000  0.69300000  1
  O  O85  1  0.11360000  0.82025000  0.15530000  1
  O  O86  1  0.01100000  0.00250000  0.30220000  1
  O  O87  1  0.00920000  0.43552000  0.35124000  1
