# generated using pymatgen
data_Tb2ZnH12C32(NO4)4
_symmetry_space_group_name_H-M   'P 1'
_cell_length_a   13.09200000
_cell_length_b   13.36800000
_cell_length_c   15.18523931
_cell_angle_alpha   116.11436361
_cell_angle_beta   115.53589773
_cell_angle_gamma   90.00000000
_symmetry_Int_Tables_number   1
_chemical_formula_structural   Tb2ZnH12C32(NO4)4
_chemical_formula_sum   'Tb4 Zn2 H24 C64 N8 O32'
_cell_volume   2093.34073162
_cell_formula_units_Z   2
loop_
 _symmetry_equiv_pos_site_id
 _symmetry_equiv_pos_as_xyz
  1  'x, y, z'
loop_
 _atom_site_type_symbol
 _atom_site_label
 _atom_site_symmetry_multiplicity
 _atom_site_fract_x
 _atom_site_fract_y
 _atom_site_fract_z
 _atom_site_occupancy
  C  C0  1  0.22000000  0.15030000  0.24160000  1
  C  C1  1  0.47840000  0.90870000  0.75840000  1
  C  C2  1  0.15030000  0.12580000  0.13040000  1
  C  C3  1  0.51990000  0.99540000  0.86960000  1
  C  C4  1  0.33610000  0.29820000  0.45000000  1
  C  C5  1  0.38610000  0.84820000  0.55000000  1
  C  C6  1  0.26460000  0.26500000  0.32700000  1
  C  C7  1  0.43760000  0.93800000  0.67300000  1
  C  C8  1  0.34860000  0.14550000  0.03300000  1
  C  C9  1  0.81560000  0.11250000  0.96700000  1
  C  C10  1  0.65440000  0.58420000  0.85660000  1
  C  C11  1  0.29780000  0.72760000  0.14340000  1
  C  C12  1  0.01260000  0.57340000  0.83400000  1
  C  C13  1  0.67860000  0.73940000  0.16600000  1
  C  C14  1  0.37580000  0.56860000  0.82160000  1
  C  C15  1  0.05420000  0.74700000  0.17840000  1
  C  C16  1  0.13430000  0.21510000  0.10460000  1
  C  C17  1  0.52970000  0.11050000  0.89540000  1
  C  C18  1  0.33430000  0.65260000  0.97840000  1
  C  C19  1  0.85590000  0.67420000  0.02160000  1
  C  C20  1  0.80980000  0.20750000  0.05460000  1
  C  C21  1  0.25520000  0.15290000  0.94540000  1
  C  C22  1  0.44270000  0.23850000  0.11240000  1
  C  C23  1  0.83030000  0.12610000  0.88760000  1
  C  C24  1  0.25060000  0.35060000  0.30060000  1
  C  C25  1  0.45000000  0.05000000  0.69940000  1
  C  C26  1  0.34840000  0.66160000  0.89700000  1
  C  C27  1  0.95140000  0.76460000  0.10300000  1
  C  C28  1  0.75670000  0.68860000  0.94480000  1
  C  C29  1  0.31190000  0.74380000  0.05520000  1
  C  C30  1  0.18840000  0.32650000  0.18900000  1
  C  C31  1  0.49940000  0.13750000  0.81100000  1
  C  C32  1  0.99940000  0.67350000  0.81100000  1
  C  C33  1  0.68840000  0.86250000  0.18900000  1
  C  C34  1  0.81190000  0.31140000  0.05520000  1
  C  C35  1  0.25670000  0.25620000  0.94480000  1
  C  C36  1  0.45140000  0.33840000  0.10300000  1
  C  C37  1  0.84840000  0.23540000  0.89700000  1
  C  C38  1  0.95000000  0.64940000  0.69940000  1
  C  C39  1  0.75060000  0.95000000  0.30060000  1
  C  C40  1  0.33030000  0.76150000  0.88760000  1
  C  C41  1  0.94270000  0.87390000  0.11240000  1
  C  C42  1  0.75520000  0.79250000  0.94540000  1
  C  C43  1  0.30980000  0.84710000  0.05460000  1
  C  C44  1  0.35590000  0.34740000  0.02160000  1
  C  C45  1  0.83430000  0.32580000  0.97840000  1
  C  C46  1  0.02970000  0.78490000  0.89540000  1
  C  C47  1  0.63430000  0.88950000  0.10460000  1
  C  C48  1  0.55420000  0.43140000  0.17840000  1
  C  C49  1  0.87580000  0.25300000  0.82160000  1
  C  C50  1  0.17860000  0.42660000  0.16600000  1
  C  C51  1  0.51260000  0.26060000  0.83400000  1
  C  C52  1  0.79780000  0.41580000  0.14340000  1
  C  C53  1  0.15440000  0.27240000  0.85660000  1
  C  C54  1  0.31560000  0.85450000  0.96700000  1
  C  C55  1  0.84860000  0.88750000  0.03300000  1
  C  C56  1  0.93760000  0.73500000  0.67300000  1
  C  C57  1  0.76460000  0.06200000  0.32700000  1
  C  C58  1  0.88610000  0.70180000  0.55000000  1
  C  C59  1  0.83610000  0.15180000  0.45000000  1
  C  C60  1  0.01990000  0.87420000  0.86960000  1
  C  C61  1  0.65030000  0.00460000  0.13040000  1
  C  C62  1  0.97840000  0.84970000  0.75840000  1
  C  C63  1  0.72000000  0.09130000  0.24160000  1
  H  H64  1  0.73620000  0.16710000  0.25820000  1
  H  H65  1  0.97800000  0.90890000  0.74180000  1
  H  H66  1  0.33970000  0.58520000  0.98240000  1
  H  H67  1  0.85730000  0.60280000  0.01760000  1
  H  H68  1  0.80460000  0.20060000  0.11100000  1
  H  H69  1  0.19360000  0.08960000  0.88900000  1
  H  H70  1  0.50130000  0.23520000  0.17300000  1
  H  H71  1  0.82830000  0.06220000  0.82700000  1
  H  H72  1  0.08760000  0.19930000  0.03120000  1
  H  H73  1  0.55640000  0.16810000  0.96880000  1
  H  H74  1  0.28270000  0.42630000  0.35740000  1
  H  H75  1  0.42530000  0.06890000  0.64260000  1
  H  H76  1  0.92530000  0.57370000  0.64260000  1
  H  H77  1  0.78270000  0.93110000  0.35740000  1
  H  H78  1  0.05640000  0.80070000  0.96880000  1
  H  H79  1  0.58760000  0.83190000  0.03120000  1
  H  H80  1  0.32830000  0.76480000  0.82700000  1
  H  H81  1  0.00130000  0.93780000  0.17300000  1
  H  H82  1  0.69360000  0.79940000  0.88900000  1
  H  H83  1  0.30460000  0.91040000  0.11100000  1
  H  H84  1  0.35730000  0.41480000  0.01760000  1
  H  H85  1  0.83970000  0.39720000  0.98240000  1
  H  H86  1  0.47800000  0.83290000  0.74180000  1
  H  H87  1  0.23620000  0.09110000  0.25820000  1
  N  N88  1  0.60510000  0.04090000  0.04800000  1
  N  N89  1  0.05710000  0.99290000  0.95200000  1
  N  N90  1  0.35280000  0.04550000  0.04440000  1
  N  N91  1  0.80840000  0.00110000  0.95560000  1
  N  N92  1  0.30840000  0.95450000  0.95560000  1
  N  N93  1  0.85280000  0.99890000  0.04440000  1
  N  N94  1  0.55710000  0.95910000  0.95200000  1
  N  N95  1  0.10510000  0.00710000  0.04800000  1
  O  O96  1  0.85810000  0.25600000  0.47980000  1
  O  O97  1  0.87830000  0.77620000  0.52020000  1
  O  O98  1  0.64460000  0.50400000  0.87660000  1
  O  O99  1  0.26800000  0.62740000  0.12340000  1
  O  O100  1  0.42190000  0.49530000  0.84940000  1
  O  O101  1  0.07250000  0.64590000  0.15060000  1
  O  O102  1  0.98100000  0.47700000  0.75220000  1
  O  O103  1  0.72880000  0.72480000  0.24780000  1
  O  O104  1  0.05070000  0.59730000  0.93320000  1
  O  O105  1  0.61750000  0.66410000  0.06680000  1
  O  O106  1  0.36870000  0.40450000  0.51900000  1
  O  O107  1  0.34970000  0.88550000  0.48100000  1
  O  O108  1  0.58870000  0.57990000  0.76800000  1
  O  O109  1  0.32070000  0.81190000  0.23200000  1
  O  O110  1  0.35760000  0.56070000  0.72860000  1
  O  O111  1  0.12900000  0.83210000  0.27140000  1
  O  O112  1  0.62900000  0.43930000  0.27140000  1
  O  O113  1  0.85760000  0.16790000  0.72860000  1
  O  O114  1  0.82070000  0.42010000  0.23200000  1
  O  O115  1  0.08870000  0.18810000  0.76800000  1
  O  O116  1  0.84970000  0.59550000  0.48100000  1
  O  O117  1  0.86870000  0.11450000  0.51900000  1
  O  O118  1  0.11750000  0.40270000  0.06680000  1
  O  O119  1  0.55070000  0.33590000  0.93320000  1
  O  O120  1  0.22880000  0.52300000  0.24780000  1
  O  O121  1  0.48100000  0.27520000  0.75220000  1
  O  O122  1  0.57250000  0.50470000  0.15060000  1
  O  O123  1  0.92190000  0.35410000  0.84940000  1
  O  O124  1  0.76800000  0.49600000  0.12340000  1
  O  O125  1  0.14460000  0.37260000  0.87660000  1
  O  O126  1  0.37830000  0.74400000  0.52020000  1
  O  O127  1  0.35810000  0.22380000  0.47980000  1
  Tb  Tb128  1  0.45433000  0.40106000  0.68700000  1
  Tb  Tb129  1  0.26733000  0.71406000  0.31300000  1
  Tb  Tb130  1  0.76733000  0.59894000  0.31300000  1
  Tb  Tb131  1  0.95433000  0.28594000  0.68700000  1
  Zn  Zn132  1  0.60940000  0.50000000  0.00000000  1
  Zn  Zn133  1  0.10940000  0.50000000  0.00000000  1
