# generated using pymatgen
data_MnCd5H20C52N4Cl3O16
_symmetry_space_group_name_H-M   'P 1'
_cell_length_a   18.94160000
_cell_length_b   18.94160000
_cell_length_c   19.97378794
_cell_angle_alpha   112.63755869
_cell_angle_beta   112.63755869
_cell_angle_gamma   100.85000000
_symmetry_Int_Tables_number   1
_chemical_formula_structural   MnCd5H20C52N4Cl3O16
_chemical_formula_sum   'Mn2 Cd10 H40 C104 N8 Cl6 O32'
_cell_volume   5608.47897459
_cell_formula_units_Z   2
loop_
 _symmetry_equiv_pos_site_id
 _symmetry_equiv_pos_as_xyz
  1  'x, y, z'
loop_
 _atom_site_type_symbol
 _atom_site_label
 _atom_site_symmetry_multiplicity
 _atom_site_fract_x
 _atom_site_fract_y
 _atom_site_fract_z
 _atom_site_occupancy
  Mn  Mn0  1  0.00000000  0.50000000  0.50000000  1
  Mn  Mn1  1  0.50000000  0.00000000  0.50000000  1
  Cd  Cd2  1  0.50000000  0.50000000  0.50000000  1
  Cd  Cd3  1  0.52972000  0.08668000  1.00000000  1
  Cd  Cd4  1  0.49101000  0.49101000  0.30802000  1
  Cd  Cd5  1  0.91332000  0.47028000  0.00000000  1
  Cd  Cd6  1  0.18299000  0.18299000  0.69198000  1
  Cd  Cd7  1  0.00000000  0.00000000  0.50000000  1
  Cd  Cd8  1  0.81701000  0.81701000  0.30802000  1
  Cd  Cd9  1  0.08668000  0.52972000  0.00000000  1
  Cd  Cd10  1  0.50899000  0.50899000  0.69198000  1
  Cd  Cd11  1  0.47028000  0.91332000  0.00000000  1
  H  H12  1  0.48580000  0.24720000  0.20760000  1
  H  H13  1  0.24750000  0.81650000  0.77560000  1
  H  H14  1  0.05490000  0.78350000  0.73200000  1
  H  H15  1  0.05150000  0.32290000  0.26800000  1
  H  H16  1  0.24070000  0.47950000  0.40400000  1
  H  H17  1  0.52050000  0.75930000  0.59600000  1
  H  H18  1  0.52810000  0.95910000  0.77560000  1
  H  H19  1  0.20690000  0.76170000  0.56700000  1
  H  H20  1  0.19470000  0.63990000  0.43300000  1
  H  H21  1  0.67710000  0.94850000  0.73200000  1
  H  H22  1  0.36010000  0.80530000  0.56700000  1
  H  H23  1  0.07550000  0.83670000  0.59600000  1
  H  H24  1  0.27820000  0.03960000  0.79240000  1
  H  H25  1  0.04090000  0.47190000  0.22440000  1
  H  H26  1  0.24720000  0.48580000  0.20760000  1
  H  H27  1  0.78350000  0.05490000  0.73200000  1
  H  H28  1  0.23830000  0.79310000  0.43300000  1
  H  H29  1  0.81650000  0.24750000  0.77560000  1
  H  H30  1  0.83670000  0.07550000  0.59600000  1
  H  H31  1  0.03960000  0.27820000  0.79240000  1
  H  H32  1  0.96040000  0.72180000  0.20760000  1
  H  H33  1  0.16330000  0.92450000  0.40400000  1
  H  H34  1  0.18350000  0.75250000  0.22440000  1
  H  H35  1  0.76170000  0.20690000  0.56700000  1
  H  H36  1  0.21650000  0.94510000  0.26800000  1
  H  H37  1  0.75280000  0.51420000  0.79240000  1
  H  H38  1  0.95910000  0.52810000  0.77560000  1
  H  H39  1  0.72180000  0.96040000  0.20760000  1
  H  H40  1  0.92450000  0.16330000  0.40400000  1
  H  H41  1  0.63990000  0.19470000  0.43300000  1
  H  H42  1  0.32290000  0.05150000  0.26800000  1
  H  H43  1  0.80530000  0.36010000  0.56700000  1
  H  H44  1  0.79310000  0.23830000  0.43300000  1
  H  H45  1  0.47190000  0.04090000  0.22440000  1
  H  H46  1  0.47950000  0.24070000  0.40400000  1
  H  H47  1  0.75930000  0.52050000  0.59600000  1
  H  H48  1  0.94850000  0.67710000  0.73200000  1
  H  H49  1  0.94510000  0.21650000  0.26800000  1
  H  H50  1  0.75250000  0.18350000  0.22440000  1
  H  H51  1  0.51420000  0.75280000  0.79240000  1
  C  C52  1  0.51240000  0.65340000  0.65080000  1
  C  C53  1  0.51690000  0.78130000  0.76400000  1
  C  C54  1  0.03360000  0.72600000  0.69820000  1
  C  C55  1  0.02780000  0.33540000  0.30180000  1
  C  C56  1  0.05640000  0.67860000  0.63220000  1
  C  C57  1  0.52290000  0.92530000  0.87460000  1
  C  C58  1  0.51660000  0.74260000  0.68880000  1
  C  C59  1  0.04640000  0.42420000  0.36780000  1
  C  C60  1  0.52110000  0.86230000  0.79640000  1
  C  C61  1  0.35170000  0.94930000  0.87460000  1
  C  C62  1  0.22860000  0.84900000  0.75380000  1
  C  C63  1  0.10550000  0.71390000  0.61280000  1
  C  C64  1  0.10110000  0.49270000  0.38720000  1
  C  C65  1  0.11300000  0.56740000  0.45620000  1
  C  C66  1  0.11120000  0.65680000  0.54380000  1
  C  C67  1  0.21480000  0.47920000  0.35360000  1
  C  C68  1  0.15380000  0.81260000  0.67880000  1
  C  C69  1  0.27530000  0.93410000  0.79640000  1
  C  C70  1  0.34660000  0.48760000  0.34920000  1
  C  C71  1  0.52080000  0.78520000  0.64640000  1
  C  C72  1  0.52520000  0.90480000  0.75380000  1
  C  C73  1  0.13380000  0.47500000  0.32120000  1
  C  C74  1  0.17380000  0.70500000  0.53580000  1
  C  C75  1  0.25740000  0.48340000  0.31120000  1
  C  C76  1  0.16920000  0.63800000  0.46420000  1
  C  C77  1  0.52500000  0.86620000  0.67880000  1
  C  C78  1  0.12560000  0.86120000  0.64640000  1
  C  C79  1  0.24710000  0.98270000  0.76400000  1
  C  C80  1  0.09520000  0.47480000  0.24620000  1
  C  C81  1  0.21870000  0.48310000  0.23600000  1
  C  C82  1  0.17220000  0.94620000  0.68880000  1
  C  C83  1  0.66460000  0.97220000  0.69820000  1
  C  C84  1  0.13770000  0.47890000  0.20360000  1
  C  C85  1  0.50730000  0.89890000  0.61280000  1
  C  C86  1  0.36200000  0.83080000  0.53580000  1
  C  C87  1  0.57580000  0.95360000  0.63220000  1
  C  C88  1  0.72600000  0.03360000  0.69820000  1
  C  C89  1  0.43260000  0.88700000  0.54380000  1
  C  C90  1  0.13840000  0.99740000  0.65080000  1
  C  C91  1  0.07470000  0.47710000  0.12540000  1
  C  C92  1  0.29500000  0.82620000  0.46420000  1
  C  C93  1  0.67860000  0.05640000  0.63220000  1
  C  C94  1  0.34320000  0.88880000  0.45620000  1
  C  C95  1  0.84900000  0.22860000  0.75380000  1
  C  C96  1  0.81260000  0.15380000  0.67880000  1
  C  C97  1  0.94930000  0.35170000  0.87460000  1
  C  C98  1  0.93410000  0.27530000  0.79640000  1
  C  C99  1  0.86120000  0.12560000  0.64640000  1
  C  C100  1  0.98270000  0.24710000  0.76400000  1
  C  C101  1  0.94620000  0.17220000  0.68880000  1
  C  C102  1  0.99740000  0.13840000  0.65080000  1
  C  C103  1  0.71390000  0.10550000  0.61280000  1
  C  C104  1  0.28610000  0.89450000  0.38720000  1
  C  C105  1  0.00260000  0.86160000  0.34920000  1
  C  C106  1  0.05380000  0.82780000  0.31120000  1
  C  C107  1  0.01730000  0.75290000  0.23600000  1
  C  C108  1  0.13880000  0.87440000  0.35360000  1
  C  C109  1  0.06590000  0.72470000  0.20360000  1
  C  C110  1  0.05070000  0.64830000  0.12540000  1
  C  C111  1  0.18740000  0.84620000  0.32120000  1
  C  C112  1  0.15100000  0.77140000  0.24620000  1
  C  C113  1  0.65680000  0.11120000  0.54380000  1
  C  C114  1  0.32140000  0.94360000  0.36780000  1
  C  C115  1  0.70500000  0.17380000  0.53580000  1
  C  C116  1  0.92530000  0.52290000  0.87460000  1
  C  C117  1  0.86160000  0.00260000  0.34920000  1
  C  C118  1  0.56740000  0.11300000  0.45620000  1
  C  C119  1  0.27400000  0.96640000  0.30180000  1
  C  C120  1  0.42420000  0.04640000  0.36780000  1
  C  C121  1  0.63800000  0.16920000  0.46420000  1
  C  C122  1  0.49270000  0.10110000  0.38720000  1
  C  C123  1  0.86230000  0.52110000  0.79640000  1
  C  C124  1  0.33540000  0.02780000  0.30180000  1
  C  C125  1  0.82780000  0.05380000  0.31120000  1
  C  C126  1  0.78130000  0.51690000  0.76400000  1
  C  C127  1  0.90480000  0.52520000  0.75380000  1
  C  C128  1  0.75290000  0.01730000  0.23600000  1
  C  C129  1  0.87440000  0.13880000  0.35360000  1
  C  C130  1  0.47500000  0.13380000  0.32120000  1
  C  C131  1  0.83080000  0.36200000  0.53580000  1
  C  C132  1  0.74260000  0.51660000  0.68880000  1
  C  C133  1  0.82620000  0.29500000  0.46420000  1
  C  C134  1  0.86620000  0.52500000  0.67880000  1
  C  C135  1  0.47480000  0.09520000  0.24620000  1
  C  C136  1  0.47920000  0.21480000  0.35360000  1
  C  C137  1  0.65340000  0.51240000  0.65080000  1
  C  C138  1  0.72470000  0.06590000  0.20360000  1
  C  C139  1  0.84620000  0.18740000  0.32120000  1
  C  C140  1  0.78520000  0.52080000  0.64640000  1
  C  C141  1  0.88880000  0.34320000  0.45620000  1
  C  C142  1  0.88700000  0.43260000  0.54380000  1
  C  C143  1  0.89890000  0.50730000  0.61280000  1
  C  C144  1  0.89450000  0.28610000  0.38720000  1
  C  C145  1  0.77140000  0.15100000  0.24620000  1
  C  C146  1  0.64830000  0.05070000  0.12540000  1
  C  C147  1  0.47890000  0.13770000  0.20360000  1
  C  C148  1  0.95360000  0.57580000  0.63220000  1
  C  C149  1  0.48340000  0.25740000  0.31120000  1
  C  C150  1  0.47710000  0.07470000  0.12540000  1
  C  C151  1  0.94360000  0.32140000  0.36780000  1
  C  C152  1  0.97220000  0.66460000  0.69820000  1
  C  C153  1  0.96640000  0.27400000  0.30180000  1
  C  C154  1  0.48310000  0.21870000  0.23600000  1
  C  C155  1  0.48760000  0.34660000  0.34920000  1
  N  N156  1  0.99710000  0.59090000  0.58800000  1
  N  N157  1  0.06670000  0.56670000  0.50000000  1
  N  N158  1  0.59090000  0.99710000  0.58800000  1
  N  N159  1  0.43330000  0.93330000  0.50000000  1
  N  N160  1  0.56670000  0.06670000  0.50000000  1
  N  N161  1  0.40910000  0.00290000  0.41200000  1
  N  N162  1  0.93330000  0.43330000  0.50000000  1
  N  N163  1  0.00290000  0.40910000  0.41200000  1
  Cl  Cl164  1  0.58350000  0.58350000  0.47120000  1
  Cl  Cl165  1  0.88610000  0.50470000  0.39080000  1
  Cl  Cl166  1  0.88770000  0.88770000  0.47120000  1
  Cl  Cl167  1  0.49530000  0.11390000  0.60920000  1
  Cl  Cl168  1  0.11230000  0.11230000  0.52880000  1
  Cl  Cl169  1  0.41650000  0.41650000  0.52880000  1
  O  O170  1  0.37530000  0.90930000  0.90280000  1
  O  O171  1  0.48180000  0.11700000  0.09300000  1
  O  O172  1  0.51210000  0.61730000  0.58360000  1
  O  O173  1  0.38270000  0.48790000  0.41640000  1
  O  O174  1  0.49130000  0.38070000  0.30820000  1
  O  O175  1  0.52750000  0.99350000  0.90280000  1
  O  O176  1  0.38880000  0.02400000  0.90700000  1
  O  O177  1  0.38070000  0.49130000  0.30820000  1
  O  O178  1  0.00650000  0.47250000  0.09720000  1
  O  O179  1  0.18310000  0.07250000  0.69180000  1
  O  O180  1  0.07150000  0.96630000  0.58360000  1
  O  O181  1  0.11700000  0.48180000  0.09300000  1
  O  O182  1  0.90930000  0.37530000  0.90280000  1
  O  O183  1  0.02400000  0.38880000  0.90700000  1
  O  O184  1  0.96630000  0.07150000  0.58360000  1
  O  O185  1  0.07250000  0.18310000  0.69180000  1
  O  O186  1  0.92750000  0.81690000  0.30820000  1
  O  O187  1  0.03370000  0.92850000  0.41640000  1
  O  O188  1  0.97600000  0.61120000  0.09300000  1
  O  O189  1  0.09070000  0.62470000  0.09720000  1
  O  O190  1  0.88300000  0.51820000  0.90700000  1
  O  O191  1  0.92850000  0.03370000  0.41640000  1
  O  O192  1  0.81690000  0.92750000  0.30820000  1
  O  O193  1  0.99350000  0.52750000  0.90280000  1
  O  O194  1  0.61930000  0.50870000  0.69180000  1
  O  O195  1  0.61120000  0.97600000  0.09300000  1
  O  O196  1  0.47250000  0.00650000  0.09720000  1
  O  O197  1  0.50870000  0.61930000  0.69180000  1
  O  O198  1  0.61730000  0.51210000  0.58360000  1
  O  O199  1  0.48790000  0.38270000  0.41640000  1
  O  O200  1  0.51820000  0.88300000  0.90700000  1
  O  O201  1  0.62470000  0.09070000  0.09720000  1
