# generated using pymatgen
data_MnH10C14(NO2)2
_symmetry_space_group_name_H-M   'P 1'
_cell_length_a   11.88500000
_cell_length_b   11.88500000
_cell_length_c   16.34400000
_cell_angle_alpha   73.48310000
_cell_angle_beta   73.48310000
_cell_angle_gamma   78.51000000
_symmetry_Int_Tables_number   1
_chemical_formula_structural   MnH10C14(NO2)2
_chemical_formula_sum   'Mn4 H40 C56 N8 O16'
_cell_volume   2104.37573053
_cell_formula_units_Z   4
loop_
 _symmetry_equiv_pos_site_id
 _symmetry_equiv_pos_as_xyz
  1  'x, y, z'
loop_
 _atom_site_type_symbol
 _atom_site_label
 _atom_site_symmetry_multiplicity
 _atom_site_fract_x
 _atom_site_fract_y
 _atom_site_fract_z
 _atom_site_occupancy
  Mn  Mn0  1  0.66750000  0.88462000  0.95294000  1
  Mn  Mn1  1  0.88462000  0.66750000  0.45294000  1
  Mn  Mn2  1  0.11538000  0.33250000  0.54706000  1
  Mn  Mn3  1  0.33250000  0.11538000  0.04706000  1
  H  H4  1  0.64230000  0.98710000  0.74490000  1
  H  H5  1  0.92220000  0.95960000  0.17920000  1
  H  H6  1  0.66470000  0.95270000  0.53680000  1
  H  H7  1  0.92630000  0.93210000  0.34540000  1
  H  H8  1  0.93210000  0.92630000  0.84540000  1
  H  H9  1  0.52020000  0.92480000  0.45360000  1
  H  H10  1  0.95960000  0.92220000  0.67920000  1
  H  H11  1  0.27430000  0.91310000  0.98210000  1
  H  H12  1  0.76640000  0.87760000  0.67180000  1
  H  H13  1  0.20500000  0.86580000  0.50030000  1
  H  H14  1  0.82730000  0.86190000  0.57660000  1
  H  H15  1  0.68700000  0.83620000  0.22540000  1
  H  H16  1  0.86190000  0.82730000  0.07660000  1
  H  H17  1  0.13420000  0.79500000  0.99970000  1
  H  H18  1  0.87760000  0.76640000  0.17180000  1
  H  H19  1  0.08690000  0.72570000  0.51790000  1
  H  H20  1  0.83620000  0.68700000  0.72540000  1
  H  H21  1  0.95270000  0.66470000  0.03680000  1
  H  H22  1  0.98710000  0.64230000  0.24490000  1
  H  H23  1  0.92480000  0.52020000  0.95360000  1
  H  H24  1  0.07520000  0.47980000  0.04640000  1
  H  H25  1  0.01290000  0.35770000  0.75510000  1
  H  H26  1  0.04730000  0.33530000  0.96320000  1
  H  H27  1  0.16380000  0.31300000  0.27460000  1
  H  H28  1  0.91310000  0.27430000  0.48210000  1
  H  H29  1  0.12240000  0.23360000  0.82820000  1
  H  H30  1  0.86580000  0.20500000  0.00030000  1
  H  H31  1  0.13810000  0.17270000  0.92340000  1
  H  H32  1  0.31300000  0.16380000  0.77460000  1
  H  H33  1  0.17270000  0.13810000  0.42340000  1
  H  H34  1  0.79500000  0.13420000  0.49970000  1
  H  H35  1  0.23360000  0.12240000  0.32820000  1
  H  H36  1  0.72570000  0.08690000  0.01790000  1
  H  H37  1  0.04040000  0.07780000  0.32080000  1
  H  H38  1  0.47980000  0.07520000  0.54640000  1
  H  H39  1  0.06790000  0.07370000  0.15460000  1
  H  H40  1  0.07370000  0.06790000  0.65460000  1
  H  H41  1  0.33530000  0.04730000  0.46320000  1
  H  H42  1  0.07780000  0.04040000  0.82080000  1
  H  H43  1  0.35770000  0.01290000  0.25510000  1
  C  C44  1  0.94650000  0.99410000  0.63950000  1
  C  C45  1  0.14140000  0.98660000  0.40420000  1
  C  C46  1  0.91720000  0.98460000  0.87630000  1
  C  C47  1  0.42170000  0.98170000  0.36350000  1
  C  C48  1  0.42360000  0.97900000  0.27770000  1
  C  C49  1  0.99410000  0.94650000  0.13950000  1
  C  C50  1  0.52460000  0.92660000  0.13350000  1
  C  C51  1  0.52070000  0.92630000  0.39630000  1
  C  C52  1  0.52430000  0.92550000  0.22560000  1
  C  C53  1  0.20260000  0.92200000  0.02320000  1
  C  C54  1  0.78280000  0.91880000  0.61000000  1
  C  C55  1  0.98460000  0.91720000  0.37630000  1
  C  C56  1  0.15060000  0.88080000  0.46610000  1
  C  C57  1  0.61930000  0.87370000  0.34480000  1
  C  C58  1  0.62100000  0.87260000  0.25940000  1
  C  C59  1  0.01340000  0.85860000  0.09580000  1
  C  C60  1  0.11920000  0.84940000  0.03390000  1
  C  C61  1  0.72240000  0.81020000  0.38360000  1
  C  C62  1  0.07800000  0.79740000  0.47680000  1
  C  C63  1  0.91880000  0.78280000  0.11000000  1
  C  C64  1  0.81020000  0.72240000  0.88360000  1
  C  C65  1  0.87260000  0.62100000  0.75940000  1
  C  C66  1  0.87370000  0.61930000  0.84480000  1
  C  C67  1  0.01830000  0.57830000  0.13650000  1
  C  C68  1  0.02100000  0.57640000  0.22230000  1
  C  C69  1  0.92660000  0.52460000  0.63350000  1
  C  C70  1  0.92550000  0.52430000  0.72560000  1
  C  C71  1  0.92630000  0.52070000  0.89630000  1
  C  C72  1  0.07370000  0.47930000  0.10370000  1
  C  C73  1  0.07450000  0.47570000  0.27440000  1
  C  C74  1  0.07340000  0.47540000  0.36650000  1
  C  C75  1  0.97900000  0.42360000  0.77770000  1
  C  C76  1  0.98170000  0.42170000  0.86350000  1
  C  C77  1  0.12630000  0.38070000  0.15520000  1
  C  C78  1  0.12740000  0.37900000  0.24060000  1
  C  C79  1  0.18980000  0.27760000  0.11640000  1
  C  C80  1  0.08120000  0.21720000  0.89000000  1
  C  C81  1  0.92200000  0.20260000  0.52320000  1
  C  C82  1  0.27760000  0.18980000  0.61640000  1
  C  C83  1  0.88080000  0.15060000  0.96610000  1
  C  C84  1  0.98660000  0.14140000  0.90420000  1
  C  C85  1  0.37900000  0.12740000  0.74060000  1
  C  C86  1  0.38070000  0.12630000  0.65520000  1
  C  C87  1  0.84940000  0.11920000  0.53390000  1
  C  C88  1  0.01540000  0.08280000  0.62370000  1
  C  C89  1  0.21720000  0.08120000  0.39000000  1
  C  C90  1  0.79740000  0.07800000  0.97680000  1
  C  C91  1  0.47570000  0.07450000  0.77440000  1
  C  C92  1  0.47930000  0.07370000  0.60370000  1
  C  C93  1  0.47540000  0.07340000  0.86650000  1
  C  C94  1  0.00590000  0.05350000  0.86050000  1
  C  C95  1  0.57640000  0.02100000  0.72230000  1
  C  C96  1  0.57830000  0.01830000  0.63650000  1
  C  C97  1  0.08280000  0.01540000  0.12370000  1
  C  C98  1  0.85860000  0.01340000  0.59580000  1
  C  C99  1  0.05350000  0.00590000  0.36050000  1
  N  N100  1  0.81370000  0.99550000  0.93150000  1
  N  N101  1  0.67220000  0.96220000  0.58510000  1
  N  N102  1  0.99550000  0.81370000  0.43150000  1
  N  N103  1  0.96220000  0.67220000  0.08510000  1
  N  N104  1  0.03780000  0.32780000  0.91490000  1
  N  N105  1  0.00450000  0.18630000  0.56850000  1
  N  N106  1  0.32780000  0.03780000  0.41490000  1
  N  N107  1  0.18630000  0.00450000  0.06850000  1
  O  O108  1  0.43010000  0.96230000  0.10860000  1
  O  O109  1  0.62000000  0.88560000  0.08880000  1
  O  O110  1  0.76250000  0.81170000  0.83560000  1
  O  O111  1  0.71720000  0.80280000  0.46310000  1
  O  O112  1  0.81170000  0.76250000  0.33560000  1
  O  O113  1  0.80280000  0.71720000  0.96310000  1
  O  O114  1  0.88560000  0.62000000  0.58880000  1
  O  O115  1  0.03770000  0.56990000  0.39140000  1
  O  O116  1  0.96230000  0.43010000  0.60860000  1
  O  O117  1  0.11440000  0.38000000  0.41120000  1
  O  O118  1  0.19720000  0.28280000  0.03690000  1
  O  O119  1  0.18830000  0.23750000  0.66440000  1
  O  O120  1  0.28280000  0.19720000  0.53690000  1
  O  O121  1  0.23750000  0.18830000  0.16440000  1
  O  O122  1  0.38000000  0.11440000  0.91120000  1
  O  O123  1  0.56990000  0.03770000  0.89140000  1
