# generated using pymatgen
data_CdH12C12(NO3)3
_symmetry_space_group_name_H-M   'P 1'
_cell_length_a   8.58930000
_cell_length_b   12.37500000
_cell_length_c   23.37600000
_cell_angle_alpha   90.00000000
_cell_angle_beta   90.00000000
_cell_angle_gamma   104.46000000
_symmetry_Int_Tables_number   1
_chemical_formula_structural   CdH12C12(NO3)3
_chemical_formula_sum   'Cd4 H48 C48 N12 O36'
_cell_volume   2405.98584407
_cell_formula_units_Z   4
loop_
 _symmetry_equiv_pos_site_id
 _symmetry_equiv_pos_as_xyz
  1  'x, y, z'
loop_
 _atom_site_type_symbol
 _atom_site_label
 _atom_site_symmetry_multiplicity
 _atom_site_fract_x
 _atom_site_fract_y
 _atom_site_fract_z
 _atom_site_occupancy
  Cd  Cd0  1  0.45246000  0.23929000  0.21877000  1
  Cd  Cd1  1  0.95246000  0.23929000  0.28123000  1
  Cd  Cd2  1  0.04754000  0.76071000  0.71877000  1
  Cd  Cd3  1  0.54754000  0.76071000  0.78123000  1
  H  H4  1  0.60930000  0.00010000  0.14730000  1
  H  H5  1  0.10930000  0.00010000  0.35270000  1
  H  H6  1  0.00780000  0.04910000  0.69780000  1
  H  H7  1  0.50780000  0.04910000  0.80220000  1
  H  H8  1  0.70230000  0.09310000  0.68450000  1
  H  H9  1  0.20230000  0.09310000  0.81550000  1
  H  H10  1  0.81780000  0.13350000  0.73660000  1
  H  H11  1  0.31780000  0.13350000  0.76340000  1
  H  H12  1  0.55630000  0.15160000  0.03220000  1
  H  H13  1  0.05630000  0.15160000  0.46780000  1
  H  H14  1  0.35280000  0.24260000  0.01150000  1
  H  H15  1  0.85280000  0.24260000  0.48850000  1
  H  H16  1  0.67980000  0.26810000  0.03810000  1
  H  H17  1  0.17980000  0.26810000  0.46190000  1
  H  H18  1  0.48050000  0.35780000  0.01490000  1
  H  H19  1  0.98050000  0.35780000  0.48510000  1
  H  H20  1  0.32410000  0.40740000  0.69410000  1
  H  H21  1  0.82410000  0.40740000  0.80590000  1
  H  H22  1  0.34450000  0.44100000  0.15350000  1
  H  H23  1  0.84450000  0.44100000  0.34650000  1
  H  H24  1  0.35620000  0.47090000  0.63550000  1
  H  H25  1  0.85620000  0.47090000  0.86450000  1
  H  H26  1  0.10690000  0.48900000  0.70960000  1
  H  H27  1  0.60690000  0.48900000  0.79040000  1
  H  H28  1  0.39310000  0.51100000  0.20960000  1
  H  H29  1  0.89310000  0.51100000  0.29040000  1
  H  H30  1  0.14380000  0.52910000  0.13550000  1
  H  H31  1  0.64380000  0.52910000  0.36450000  1
  H  H32  1  0.15550000  0.55900000  0.65350000  1
  H  H33  1  0.65550000  0.55900000  0.84650000  1
  H  H34  1  0.17590000  0.59260000  0.19410000  1
  H  H35  1  0.67590000  0.59260000  0.30590000  1
  H  H36  1  0.01950000  0.64220000  0.51490000  1
  H  H37  1  0.51950000  0.64220000  0.98510000  1
  H  H38  1  0.82020000  0.73190000  0.53810000  1
  H  H39  1  0.32020000  0.73190000  0.96190000  1
  H  H40  1  0.14720000  0.75740000  0.51150000  1
  H  H41  1  0.64720000  0.75740000  0.98850000  1
  H  H42  1  0.94370000  0.84840000  0.53220000  1
  H  H43  1  0.44370000  0.84840000  0.96780000  1
  H  H44  1  0.68220000  0.86650000  0.23660000  1
  H  H45  1  0.18220000  0.86650000  0.26340000  1
  H  H46  1  0.79770000  0.90690000  0.18450000  1
  H  H47  1  0.29770000  0.90690000  0.31550000  1
  H  H48  1  0.49220000  0.95090000  0.19780000  1
  H  H49  1  0.99220000  0.95090000  0.30220000  1
  H  H50  1  0.89070000  0.99990000  0.64730000  1
  H  H51  1  0.39070000  0.99990000  0.85270000  1
  C  C52  1  0.79010000  0.03390000  0.23990000  1
  C  C53  1  0.29010000  0.03390000  0.26010000  1
  C  C54  1  0.92380000  0.06270000  0.67320000  1
  C  C55  1  0.42380000  0.06270000  0.82680000  1
  C  C56  1  0.78270000  0.07390000  0.70890000  1
  C  C57  1  0.28270000  0.07390000  0.79110000  1
  C  C58  1  0.93840000  0.17070000  0.58360000  1
  C  C59  1  0.43840000  0.17070000  0.91640000  1
  C  C60  1  0.56790000  0.22870000  0.04320000  1
  C  C61  1  0.06790000  0.22870000  0.45680000  1
  C  C62  1  0.52340000  0.23330000  0.10540000  1
  C  C63  1  0.02340000  0.23330000  0.39460000  1
  C  C64  1  0.09290000  0.25340000  0.66750000  1
  C  C65  1  0.59290000  0.25340000  0.83250000  1
  C  C66  1  0.46500000  0.27970000  0.00510000  1
  C  C67  1  0.96500000  0.27970000  0.49490000  1
  C  C68  1  0.11140000  0.35690000  0.57860000  1
  C  C69  1  0.61140000  0.35690000  0.92140000  1
  C  C70  1  0.18720000  0.38660000  0.21940000  1
  C  C71  1  0.68720000  0.38660000  0.28060000  1
  C  C72  1  0.27330000  0.43720000  0.66290000  1
  C  C73  1  0.77330000  0.43720000  0.83710000  1
  C  C74  1  0.30300000  0.47580000  0.18540000  1
  C  C75  1  0.80300000  0.47580000  0.31460000  1
  C  C76  1  0.19700000  0.52420000  0.68540000  1
  C  C77  1  0.69700000  0.52420000  0.81460000  1
  C  C78  1  0.22670000  0.56280000  0.16290000  1
  C  C79  1  0.72670000  0.56280000  0.33710000  1
  C  C80  1  0.31280000  0.61340000  0.71940000  1
  C  C81  1  0.81280000  0.61340000  0.78060000  1
  C  C82  1  0.38860000  0.64310000  0.07860000  1
  C  C83  1  0.88860000  0.64310000  0.42140000  1
  C  C84  1  0.03500000  0.72030000  0.50510000  1
  C  C85  1  0.53500000  0.72030000  0.99490000  1
  C  C86  1  0.40710000  0.74660000  0.16750000  1
  C  C87  1  0.90710000  0.74660000  0.33250000  1
  C  C88  1  0.97660000  0.76670000  0.60540000  1
  C  C89  1  0.47660000  0.76670000  0.89460000  1
  C  C90  1  0.93210000  0.77130000  0.54320000  1
  C  C91  1  0.43210000  0.77130000  0.95680000  1
  C  C92  1  0.56160000  0.82930000  0.08360000  1
  C  C93  1  0.06160000  0.82930000  0.41640000  1
  C  C94  1  0.71730000  0.92610000  0.20890000  1
  C  C95  1  0.21730000  0.92610000  0.29110000  1
  C  C96  1  0.57620000  0.93730000  0.17320000  1
  C  C97  1  0.07620000  0.93730000  0.32680000  1
  C  C98  1  0.70990000  0.96610000  0.73990000  1
  C  C99  1  0.20990000  0.96610000  0.76010000  1
  N  N100  1  0.98640000  0.16690000  0.63990000  1
  N  N101  1  0.48640000  0.16690000  0.86010000  1
  N  N102  1  0.00390000  0.27040000  0.55620000  1
  N  N103  1  0.50390000  0.27040000  0.94380000  1
  N  N104  1  0.15480000  0.34540000  0.63490000  1
  N  N105  1  0.65480000  0.34540000  0.86510000  1
  N  N106  1  0.34520000  0.65460000  0.13490000  1
  N  N107  1  0.84520000  0.65460000  0.36510000  1
  N  N108  1  0.49610000  0.72960000  0.05620000  1
  N  N109  1  0.99610000  0.72960000  0.44380000  1
  N  N110  1  0.51360000  0.83310000  0.13990000  1
  N  N111  1  0.01360000  0.83310000  0.36010000  1
  O  O112  1  0.25620000  0.04860000  0.20910000  1
  O  O113  1  0.75620000  0.04860000  0.29090000  1
  O  O114  1  0.84620000  0.09410000  0.56150000  1
  O  O115  1  0.34620000  0.09410000  0.93850000  1
  O  O116  1  0.89120000  0.10430000  0.21550000  1
  O  O117  1  0.39120000  0.10430000  0.28450000  1
  O  O118  1  0.61670000  0.21640000  0.14190000  1
  O  O119  1  0.11670000  0.21640000  0.35810000  1
  O  O120  1  0.12890000  0.24840000  0.71720000  1
  O  O121  1  0.62890000  0.24840000  0.78280000  1
  O  O122  1  0.39390000  0.25560000  0.11850000  1
  O  O123  1  0.89390000  0.25560000  0.38150000  1
  O  O124  1  0.21460000  0.29310000  0.22650000  1
  O  O125  1  0.71460000  0.29310000  0.27350000  1
  O  O126  1  0.06260000  0.40560000  0.23760000  1
  O  O127  1  0.56260000  0.40560000  0.26240000  1
  O  O128  1  0.17320000  0.44320000  0.55190000  1
  O  O129  1  0.67320000  0.44320000  0.94810000  1
  O  O130  1  0.32680000  0.55680000  0.05190000  1
  O  O131  1  0.82680000  0.55680000  0.44810000  1
  O  O132  1  0.43740000  0.59440000  0.73760000  1
  O  O133  1  0.93740000  0.59440000  0.76240000  1
  O  O134  1  0.28540000  0.70690000  0.72650000  1
  O  O135  1  0.78540000  0.70690000  0.77350000  1
  O  O136  1  0.10610000  0.74440000  0.61850000  1
  O  O137  1  0.60610000  0.74440000  0.88150000  1
  O  O138  1  0.37110000  0.75160000  0.21720000  1
  O  O139  1  0.87110000  0.75160000  0.28280000  1
  O  O140  1  0.88330000  0.78360000  0.64190000  1
  O  O141  1  0.38330000  0.78360000  0.85810000  1
  O  O142  1  0.60880000  0.89570000  0.71550000  1
  O  O143  1  0.10880000  0.89570000  0.78450000  1
  O  O144  1  0.65380000  0.90590000  0.06150000  1
  O  O145  1  0.15380000  0.90590000  0.43850000  1
  O  O146  1  0.24380000  0.95140000  0.70910000  1
  O  O147  1  0.74380000  0.95140000  0.79090000  1
