# generated using pymatgen
data_Ag2H9(C2O)6
_symmetry_space_group_name_H-M   'P 1'
_cell_length_a   4.71430000
_cell_length_b   11.73440000
_cell_length_c   13.68230000
_cell_angle_alpha   67.66600000
_cell_angle_beta   89.26900000
_cell_angle_gamma   82.09600000
_symmetry_Int_Tables_number   1
_chemical_formula_structural   Ag2H9(C2O)6
_chemical_formula_sum   'Ag4 H18 C24 O12'
_cell_volume   692.82265826
_cell_formula_units_Z   2
loop_
 _symmetry_equiv_pos_site_id
 _symmetry_equiv_pos_as_xyz
  1  'x, y, z'
loop_
 _atom_site_type_symbol
 _atom_site_label
 _atom_site_symmetry_multiplicity
 _atom_site_fract_x
 _atom_site_fract_y
 _atom_site_fract_z
 _atom_site_occupancy
  Ag  Ag0  1  0.26980000  0.04904000  0.06423000  1
  Ag  Ag1  1  0.32599000  0.12973000  0.78231000  1
  Ag  Ag2  1  0.67401000  0.87027000  0.21769000  1
  Ag  Ag3  1  0.73020000  0.95096000  0.93577000  1
  H  H4  1  0.00710000  0.77030000  0.53850000  1
  H  H5  1  0.07190000  0.46060000  0.72160000  1
  H  H6  1  0.07220000  0.32330000  0.91300000  1
  H  H7  1  0.09220000  0.70880000  0.84030000  1
  H  H8  1  0.10420000  0.80320000  0.72040000  1
  H  H9  1  0.19160000  0.63580000  0.56960000  1
  H  H10  1  0.20190000  0.66140000  0.02090000  1
  H  H11  1  0.43860000  0.52110000  0.90690000  1
  H  H12  1  0.45010000  0.20950000  0.37480000  1
  H  H13  1  0.54990000  0.79050000  0.62520000  1
  H  H14  1  0.56140000  0.47890000  0.09310000  1
  H  H15  1  0.79810000  0.33860000  0.97910000  1
  H  H16  1  0.80840000  0.36420000  0.43040000  1
  H  H17  1  0.89580000  0.19680000  0.27960000  1
  H  H18  1  0.90780000  0.29120000  0.15970000  1
  H  H19  1  0.92780000  0.67670000  0.08700000  1
  H  H20  1  0.92810000  0.53940000  0.27840000  1
  H  H21  1  0.99290000  0.22970000  0.46150000  1
  C  C22  1  0.00620000  0.31880000  0.44380000  1
  C  C23  1  0.08390000  0.48650000  0.26640000  1
  C  C24  1  0.13740000  0.33170000  0.53910000  1
  C  C25  1  0.13970000  0.65900000  0.09100000  1
  C  C26  1  0.16590000  0.36610000  0.34310000  1
  C  C27  1  0.21910000  0.75790000  0.78740000  1
  C  C28  1  0.23030000  0.52900000  0.17220000  1
  C  C29  1  0.25840000  0.76180000  0.11280000  1
  C  C30  1  0.32110000  0.85250000  0.82560000  1
  C  C31  1  0.39310000  0.29080000  0.32330000  1
  C  C32  1  0.45900000  0.45020000  0.15610000  1
  C  C33  1  0.46000000  0.66960000  0.76960000  1
  C  C34  1  0.54000000  0.33040000  0.23040000  1
  C  C35  1  0.54100000  0.54980000  0.84390000  1
  C  C36  1  0.60690000  0.70920000  0.67670000  1
  C  C37  1  0.67890000  0.14750000  0.17440000  1
  C  C38  1  0.74160000  0.23820000  0.88720000  1
  C  C39  1  0.76970000  0.47100000  0.82780000  1
  C  C40  1  0.78090000  0.24210000  0.21260000  1
  C  C41  1  0.83410000  0.63390000  0.65690000  1
  C  C42  1  0.86030000  0.34100000  0.90900000  1
  C  C43  1  0.86260000  0.66830000  0.46090000  1
  C  C44  1  0.91610000  0.51350000  0.73360000  1
  C  C45  1  0.99380000  0.68120000  0.55620000  1
  O  O46  1  0.03370000  0.27480000  0.62770000  1
  O  O47  1  0.13540000  0.87180000  0.06320000  1
  O  O48  1  0.15720000  0.95490000  0.80100000  1
  O  O49  1  0.33160000  0.39850000  0.52580000  1
  O  O50  1  0.44810000  0.17840000  0.12010000  1
  O  O51  1  0.47030000  0.73310000  0.17570000  1
  O  O52  1  0.52970000  0.26690000  0.82430000  1
  O  O53  1  0.55190000  0.82160000  0.87990000  1
  O  O54  1  0.66840000  0.60150000  0.47420000  1
  O  O55  1  0.84280000  0.04510000  0.19900000  1
  O  O56  1  0.86460000  0.12820000  0.93680000  1
  O  O57  1  0.96630000  0.72520000  0.37230000  1
