# generated using pymatgen
data_Mn4H21C15(N2O)6
_symmetry_space_group_name_H-M   'P 1'
_cell_length_a   8.06440000
_cell_length_b   13.49170000
_cell_length_c   13.49170000
_cell_angle_alpha   120.00000000
_cell_angle_beta   90.00000000
_cell_angle_gamma   90.00000000
_symmetry_Int_Tables_number   1
_chemical_formula_structural   Mn4H21C15(N2O)6
_chemical_formula_sum   'Mn8 H42 C30 N24 O12'
_cell_volume   1271.26486455
_cell_formula_units_Z   2
loop_
 _symmetry_equiv_pos_site_id
 _symmetry_equiv_pos_as_xyz
  1  'x, y, z'
loop_
 _atom_site_type_symbol
 _atom_site_label
 _atom_site_symmetry_multiplicity
 _atom_site_fract_x
 _atom_site_fract_y
 _atom_site_fract_z
 _atom_site_occupancy
  Mn  Mn0  1  0.04580000  0.96458000  0.66199000  1
  Mn  Mn1  1  0.04580000  0.69741000  0.03542000  1
  Mn  Mn2  1  0.42112000  0.66666667  0.33333333  1
  Mn  Mn3  1  0.54580000  0.66199000  0.69741000  1
  Mn  Mn4  1  0.04580000  0.33801000  0.30259000  1
  Mn  Mn5  1  0.92112000  0.33333333  0.66666667  1
  Mn  Mn6  1  0.54580000  0.30259000  0.96458000  1
  Mn  Mn7  1  0.54580000  0.03542000  0.33801000  1
  H  H8  1  0.80110000  0.98260000  0.53890000  1
  H  H9  1  0.55610000  0.95590000  0.60270000  1
  H  H10  1  0.65120000  0.91560000  0.67790000  1
  H  H11  1  0.93930000  0.91160000  0.19840000  1
  H  H12  1  0.79550000  0.86530000  0.51580000  1
  H  H13  1  0.20960000  0.86360000  0.28630000  1
  H  H14  1  0.94560000  0.84480000  0.25650000  1
  H  H15  1  0.93930000  0.80160000  0.71320000  1
  H  H16  1  0.65120000  0.76230000  0.08440000  1
  H  H17  1  0.94560000  0.74350000  0.58830000  1
  H  H18  1  0.20960000  0.71370000  0.57730000  1
  H  H19  1  0.43930000  0.71320000  0.91160000  1
  H  H20  1  0.15120000  0.67790000  0.76230000  1
  H  H21  1  0.79550000  0.65050000  0.13470000  1
  H  H22  1  0.55610000  0.64680000  0.04410000  1
  H  H23  1  0.05610000  0.60270000  0.64680000  1
  H  H24  1  0.44560000  0.58830000  0.84480000  1
  H  H25  1  0.70960000  0.57730000  0.86360000  1
  H  H26  1  0.80110000  0.55630000  0.01740000  1
  H  H27  1  0.30110000  0.53890000  0.55630000  1
  H  H28  1  0.29550000  0.51580000  0.65050000  1
  H  H29  1  0.79550000  0.48420000  0.34950000  1
  H  H30  1  0.80110000  0.46110000  0.44370000  1
  H  H31  1  0.30110000  0.44370000  0.98260000  1
  H  H32  1  0.20960000  0.42270000  0.13640000  1
  H  H33  1  0.94560000  0.41170000  0.15520000  1
  H  H34  1  0.55610000  0.39730000  0.35320000  1
  H  H35  1  0.05610000  0.35320000  0.95590000  1
  H  H36  1  0.29550000  0.34950000  0.86530000  1
  H  H37  1  0.65120000  0.32210000  0.23770000  1
  H  H38  1  0.93930000  0.28680000  0.08840000  1
  H  H39  1  0.70960000  0.28630000  0.42270000  1
  H  H40  1  0.44560000  0.25650000  0.41170000  1
  H  H41  1  0.15120000  0.23770000  0.91560000  1
  H  H42  1  0.43930000  0.19840000  0.28680000  1
  H  H43  1  0.44560000  0.15520000  0.74350000  1
  H  H44  1  0.70960000  0.13640000  0.71370000  1
  H  H45  1  0.29550000  0.13470000  0.48420000  1
  H  H46  1  0.43930000  0.08840000  0.80160000  1
  H  H47  1  0.15120000  0.08440000  0.32210000  1
  H  H48  1  0.05610000  0.04410000  0.39730000  1
  H  H49  1  0.30110000  0.01740000  0.46110000  1
  C  C50  1  0.65600000  0.96690000  0.64710000  1
  C  C51  1  0.16410000  0.90894000  0.25425000  1
  C  C52  1  0.27950000  0.89100000  0.15691000  1
  C  C53  1  0.27950000  0.84309000  0.73409000  1
  C  C54  1  0.27660000  0.79415000  0.44017000  1
  C  C55  1  0.54910000  0.78720000  0.32237000  1
  C  C56  1  0.16410000  0.74575000  0.65469000  1
  C  C57  1  0.77950000  0.73409000  0.89100000  1
  C  C58  1  0.65600000  0.68020000  0.03310000  1
  C  C59  1  0.54910000  0.67763000  0.46483000  1
  C  C60  1  0.66410000  0.65469000  0.90894000  1
  C  C61  1  0.15600000  0.64710000  0.68020000  1
  C  C62  1  0.27660000  0.64602000  0.20585000  1
  C  C63  1  0.27660000  0.55983000  0.35398000  1
  C  C64  1  0.54910000  0.53517000  0.21280000  1
  C  C65  1  0.04910000  0.46483000  0.78720000  1
  C  C66  1  0.77660000  0.44017000  0.64602000  1
  C  C67  1  0.77660000  0.35398000  0.79415000  1
  C  C68  1  0.65600000  0.35290000  0.31980000  1
  C  C69  1  0.16410000  0.34531000  0.09106000  1
  C  C70  1  0.04910000  0.32237000  0.53517000  1
  C  C71  1  0.15600000  0.31980000  0.96690000  1
  C  C72  1  0.27950000  0.26591000  0.10900000  1
  C  C73  1  0.66410000  0.25425000  0.34531000  1
  C  C74  1  0.04910000  0.21280000  0.67763000  1
  C  C75  1  0.77660000  0.20585000  0.55983000  1
  C  C76  1  0.77950000  0.15691000  0.26591000  1
  C  C77  1  0.77950000  0.10900000  0.84309000  1
  C  C78  1  0.66410000  0.09106000  0.74575000  1
  C  C79  1  0.15600000  0.03310000  0.35290000  1
  N  N80  1  0.80280000  0.93886000  0.57193000  1
  N  N81  1  0.19090000  0.86889000  0.50069000  1
  N  N82  1  0.60590000  0.86475000  0.32038000  1
  N  N83  1  0.00000000  0.86133000  0.20836000  1
  N  N84  1  1.00000000  0.79164000  0.65297000  1
  N  N85  1  0.60590000  0.67962000  0.54437000  1
  N  N86  1  0.50000000  0.65297000  0.86133000  1
  N  N87  1  0.80280000  0.63307000  0.06114000  1
  N  N88  1  0.19090000  0.63180000  0.13111000  1
  N  N89  1  0.30280000  0.57193000  0.63307000  1
  N  N90  1  0.10590000  0.54437000  0.86475000  1
  N  N91  1  0.69090000  0.50069000  0.63180000  1
  N  N92  1  0.19090000  0.49931000  0.36820000  1
  N  N93  1  0.60590000  0.45563000  0.13525000  1
  N  N94  1  0.80280000  0.42807000  0.36693000  1
  N  N95  1  0.69090000  0.36820000  0.86889000  1
  N  N96  1  0.30280000  0.36693000  0.93886000  1
  N  N97  1  1.00000000  0.34703000  0.13867000  1
  N  N98  1  0.10590000  0.32038000  0.45563000  1
  N  N99  1  0.50000000  0.20836000  0.34703000  1
  N  N100  1  0.50000000  0.13867000  0.79164000  1
  N  N101  1  0.10590000  0.13525000  0.67962000  1
  N  N102  1  0.69090000  0.13111000  0.49931000  1
  N  N103  1  0.30280000  0.06114000  0.42807000  1
  O  O104  1  0.40640000  0.95178000  0.18034000  1
  O  O105  1  0.24410000  0.94331000  0.75775000  1
  O  O106  1  0.40640000  0.81966000  0.77144000  1
  O  O107  1  0.24410000  0.81444000  0.05669000  1
  O  O108  1  0.90640000  0.77144000  0.95178000  1
  O  O109  1  0.74410000  0.75775000  0.81444000  1
  O  O110  1  0.24410000  0.24225000  0.18556000  1
  O  O111  1  0.40640000  0.22856000  0.04822000  1
  O  O112  1  0.74410000  0.18556000  0.94331000  1
  O  O113  1  0.90640000  0.18034000  0.22856000  1
  O  O114  1  0.74410000  0.05669000  0.24225000  1
  O  O115  1  0.90640000  0.04822000  0.81966000  1
