# generated using pymatgen
data_Zn4H12C24O13
_symmetry_space_group_name_H-M   'P 1'
_cell_length_a   18.06162851
_cell_length_b   18.06162851
_cell_length_c   18.06162851
_cell_angle_alpha   60.00000000
_cell_angle_beta   60.00000000
_cell_angle_gamma   60.00000000
_symmetry_Int_Tables_number   1
_chemical_formula_structural   Zn4H12C24O13
_chemical_formula_sum   'Zn8 H24 C48 O26'
_cell_volume   4166.34969450
_cell_formula_units_Z   2
loop_
 _symmetry_equiv_pos_site_id
 _symmetry_equiv_pos_as_xyz
  1  'x, y, z'
loop_
 _atom_site_type_symbol
 _atom_site_label
 _atom_site_symmetry_multiplicity
 _atom_site_fract_x
 _atom_site_fract_y
 _atom_site_fract_z
 _atom_site_occupancy
  C  C0  1  0.97620000  0.97620000  0.57920000  1
  C  C1  1  0.53160000  0.42080000  0.02380000  1
  C  C2  1  0.97620000  0.97620000  0.46840000  1
  C  C3  1  0.42080000  0.53160000  0.02380000  1
  C  C4  1  0.94480000  0.94480000  0.55520000  1
  C  C5  1  0.44480000  0.44480000  0.05520000  1
  C  C6  1  0.88740000  0.88740000  0.61260000  1
  C  C7  1  0.38740000  0.38740000  0.11260000  1
  C  C8  1  0.97620000  0.57920000  0.97620000  1
  C  C9  1  0.53160000  0.02380000  0.42080000  1
  C  C10  1  0.57920000  0.97620000  0.97620000  1
  C  C11  1  0.53160000  0.02380000  0.02380000  1
  C  C12  1  0.97620000  0.57920000  0.46840000  1
  C  C13  1  0.02380000  0.53160000  0.42080000  1
  C  C14  1  0.57920000  0.97620000  0.46840000  1
  C  C15  1  0.02380000  0.53160000  0.02380000  1
  C  C16  1  0.94480000  0.55520000  0.94480000  1
  C  C17  1  0.44480000  0.05520000  0.44480000  1
  C  C18  1  0.88740000  0.61260000  0.88740000  1
  C  C19  1  0.38740000  0.11260000  0.38740000  1
  C  C20  1  0.55520000  0.94480000  0.94480000  1
  C  C21  1  0.61260000  0.88740000  0.88740000  1
  C  C22  1  0.88740000  0.61260000  0.61260000  1
  C  C23  1  0.94480000  0.55520000  0.55520000  1
  C  C24  1  0.05520000  0.44480000  0.44480000  1
  C  C25  1  0.11260000  0.38740000  0.38740000  1
  C  C26  1  0.38740000  0.11260000  0.11260000  1
  C  C27  1  0.44480000  0.05520000  0.05520000  1
  C  C28  1  0.61260000  0.88740000  0.61260000  1
  C  C29  1  0.11260000  0.38740000  0.11260000  1
  C  C30  1  0.55520000  0.94480000  0.55520000  1
  C  C31  1  0.05520000  0.44480000  0.05520000  1
  C  C32  1  0.97620000  0.46840000  0.97620000  1
  C  C33  1  0.42080000  0.02380000  0.53160000  1
  C  C34  1  0.97620000  0.46840000  0.57920000  1
  C  C35  1  0.02380000  0.42080000  0.53160000  1
  C  C36  1  0.46840000  0.97620000  0.97620000  1
  C  C37  1  0.42080000  0.02380000  0.02380000  1
  C  C38  1  0.46840000  0.97620000  0.57920000  1
  C  C39  1  0.02380000  0.42080000  0.02380000  1
  C  C40  1  0.61260000  0.61260000  0.88740000  1
  C  C41  1  0.11260000  0.11260000  0.38740000  1
  C  C42  1  0.55520000  0.55520000  0.94480000  1
  C  C43  1  0.05520000  0.05520000  0.44480000  1
  C  C44  1  0.57920000  0.46840000  0.97620000  1
  C  C45  1  0.02380000  0.02380000  0.53160000  1
  C  C46  1  0.46840000  0.57920000  0.97620000  1
  C  C47  1  0.02380000  0.02380000  0.42080000  1
  H  H48  1  0.96000000  0.96000000  0.65422000  1
  H  H49  1  0.57422000  0.34578000  0.04000000  1
  H  H50  1  0.96000000  0.96000000  0.42578000  1
  H  H51  1  0.34578000  0.57422000  0.04000000  1
  H  H52  1  0.96000000  0.65422000  0.96000000  1
  H  H53  1  0.57422000  0.04000000  0.34578000  1
  H  H54  1  0.65422000  0.96000000  0.96000000  1
  H  H55  1  0.57422000  0.04000000  0.04000000  1
  H  H56  1  0.96000000  0.65422000  0.42578000  1
  H  H57  1  0.04000000  0.57422000  0.34578000  1
  H  H58  1  0.65422000  0.96000000  0.42578000  1
  H  H59  1  0.04000000  0.57422000  0.04000000  1
  H  H60  1  0.96000000  0.42578000  0.96000000  1
  H  H61  1  0.34578000  0.04000000  0.57422000  1
  H  H62  1  0.96000000  0.42578000  0.65422000  1
  H  H63  1  0.04000000  0.34578000  0.57422000  1
  H  H64  1  0.42578000  0.96000000  0.96000000  1
  H  H65  1  0.34578000  0.04000000  0.04000000  1
  H  H66  1  0.42578000  0.96000000  0.65422000  1
  H  H67  1  0.04000000  0.34578000  0.04000000  1
  H  H68  1  0.65422000  0.42578000  0.96000000  1
  H  H69  1  0.04000000  0.04000000  0.57422000  1
  H  H70  1  0.42578000  0.65422000  0.96000000  1
  H  H71  1  0.04000000  0.04000000  0.34578000  1
  O  O72  1  0.86570000  0.86570000  0.69910000  1
  O  O73  1  0.43050000  0.30090000  0.13430000  1
  O  O74  1  0.86570000  0.86570000  0.56950000  1
  O  O75  1  0.30090000  0.43050000  0.13430000  1
  O  O76  1  0.86570000  0.69910000  0.86570000  1
  O  O77  1  0.43050000  0.13430000  0.30090000  1
  O  O78  1  0.69910000  0.86570000  0.86570000  1
  O  O79  1  0.43050000  0.13430000  0.13430000  1
  O  O80  1  0.86570000  0.69910000  0.56950000  1
  O  O81  1  0.13430000  0.43050000  0.30090000  1
  O  O82  1  0.69910000  0.86570000  0.56950000  1
  O  O83  1  0.13430000  0.43050000  0.13430000  1
  O  O84  1  0.75000000  0.75000000  0.75000000  1
  O  O85  1  0.25000000  0.25000000  0.25000000  1
  O  O86  1  0.86570000  0.56950000  0.86570000  1
  O  O87  1  0.30090000  0.13430000  0.43050000  1
  O  O88  1  0.86570000  0.56950000  0.69910000  1
  O  O89  1  0.13430000  0.30090000  0.43050000  1
  O  O90  1  0.56950000  0.86570000  0.86570000  1
  O  O91  1  0.30090000  0.13430000  0.13430000  1
  O  O92  1  0.56950000  0.86570000  0.69910000  1
  O  O93  1  0.13430000  0.30090000  0.13430000  1
  O  O94  1  0.69910000  0.56950000  0.86570000  1
  O  O95  1  0.13430000  0.13430000  0.43050000  1
  O  O96  1  0.56950000  0.69910000  0.86570000  1
  O  O97  1  0.13430000  0.13430000  0.30090000  1
  Zn  Zn98  1  0.79368000  0.79368000  0.79368000  1
  Zn  Zn99  1  0.38104000  0.20632000  0.20632000  1
  Zn  Zn100  1  0.79368000  0.79368000  0.61896000  1
  Zn  Zn101  1  0.20632000  0.38104000  0.20632000  1
  Zn  Zn102  1  0.79368000  0.61896000  0.79368000  1
  Zn  Zn103  1  0.20632000  0.20632000  0.38104000  1
  Zn  Zn104  1  0.61896000  0.79368000  0.79368000  1
  Zn  Zn105  1  0.20632000  0.20632000  0.20632000  1
