# generated using pymatgen
data_Cu7H12(C8O11)2
_symmetry_space_group_name_H-M   'P 1'
_cell_length_a   10.14170000
_cell_length_b   10.54740000
_cell_length_c   14.22380000
_cell_angle_alpha   91.79500000
_cell_angle_beta   90.00000000
_cell_angle_gamma   90.00000000
_symmetry_Int_Tables_number   1
_chemical_formula_structural   Cu7H12(C8O11)2
_chemical_formula_sum   'Cu14 H24 C32 O44'
_cell_volume   1520.75289397
_cell_formula_units_Z   2
loop_
 _symmetry_equiv_pos_site_id
 _symmetry_equiv_pos_as_xyz
  1  'x, y, z'
loop_
 _atom_site_type_symbol
 _atom_site_label
 _atom_site_symmetry_multiplicity
 _atom_site_fract_x
 _atom_site_fract_y
 _atom_site_fract_z
 _atom_site_occupancy
  Cu  Cu0  1  0.00000000  0.50000000  0.00000000  1
  Cu  Cu1  1  0.00000000  0.00000000  0.50000000  1
  Cu  Cu2  1  0.00000000  0.50000000  0.50000000  1
  Cu  Cu3  1  0.99774000  0.97415000  0.89868000  1
  Cu  Cu4  1  0.84576000  0.23646000  0.00095000  1
  Cu  Cu5  1  0.65424000  0.73646000  0.00095000  1
  Cu  Cu6  1  0.50226000  0.47415000  0.89868000  1
  Cu  Cu7  1  0.50000000  1.00000000  0.00000000  1
  Cu  Cu8  1  0.50000000  1.00000000  0.50000000  1
  Cu  Cu9  1  0.50000000  0.50000000  0.50000000  1
  Cu  Cu10  1  0.49774000  0.52585000  0.10132000  1
  Cu  Cu11  1  0.34576000  0.26354000  0.99905000  1
  Cu  Cu12  1  0.15424000  0.76354000  0.99905000  1
  Cu  Cu13  1  0.00226000  0.02585000  0.10132000  1
  H  H14  1  0.93500000  0.80100000  0.26000000  1
  H  H15  1  0.87800000  0.34500000  0.68400000  1
  H  H16  1  0.82300000  0.01700000  0.99700000  1
  H  H17  1  0.82300000  0.42500000  0.06400000  1
  H  H18  1  0.82000000  0.46200000  0.28200000  1
  H  H19  1  0.76300000  0.71300000  0.32000000  1
  H  H20  1  0.73700000  0.21300000  0.32000000  1
  H  H21  1  0.68000000  0.96200000  0.28200000  1
  H  H22  1  0.67700000  0.51700000  0.99700000  1
  H  H23  1  0.67700000  0.92500000  0.06400000  1
  H  H24  1  0.62200000  0.84500000  0.68400000  1
  H  H25  1  0.56500000  0.30100000  0.26000000  1
  H  H26  1  0.43500000  0.69900000  0.74000000  1
  H  H27  1  0.37800000  0.15500000  0.31600000  1
  H  H28  1  0.32300000  0.07500000  0.93600000  1
  H  H29  1  0.32300000  0.48300000  0.00300000  1
  H  H30  1  0.32000000  0.03800000  0.71800000  1
  H  H31  1  0.26300000  0.78700000  0.68000000  1
  H  H32  1  0.23700000  0.28700000  0.68000000  1
  H  H33  1  0.18000000  0.53800000  0.71800000  1
  H  H34  1  0.17700000  0.57500000  0.93600000  1
  H  H35  1  0.17700000  0.98300000  0.00300000  1
  H  H36  1  0.12200000  0.65500000  0.31600000  1
  H  H37  1  0.06500000  0.19900000  0.74000000  1
  C  C38  1  0.99960000  0.31960000  0.83910000  1
  C  C39  1  0.98180000  0.25910000  0.57419000  1
  C  C40  1  0.97210000  0.33580000  0.66696000  1
  C  C41  1  0.94260000  0.72010000  0.25601000  1
  C  C42  1  0.83820000  0.53700000  0.32430000  1
  C  C43  1  0.80740000  0.66190000  0.27625000  1
  C  C44  1  0.78220000  0.14720000  0.19116000  1
  C  C45  1  0.75640000  0.51770000  0.41376000  1
  C  C46  1  0.74360000  0.01770000  0.41376000  1
  C  C47  1  0.71780000  0.64720000  0.19116000  1
  C  C48  1  0.69260000  0.16190000  0.27625000  1
  C  C49  1  0.66180000  0.03700000  0.32430000  1
  C  C50  1  0.55740000  0.22010000  0.25601000  1
  C  C51  1  0.52790000  0.83580000  0.66696000  1
  C  C52  1  0.51820000  0.75910000  0.57419000  1
  C  C53  1  0.50040000  0.81960000  0.83910000  1
  C  C54  1  0.49960000  0.18040000  0.16090000  1
  C  C55  1  0.48180000  0.24090000  0.42581000  1
  C  C56  1  0.47210000  0.16420000  0.33304000  1
  C  C57  1  0.44260000  0.77990000  0.74399000  1
  C  C58  1  0.33820000  0.96300000  0.67570000  1
  C  C59  1  0.30740000  0.83810000  0.72375000  1
  C  C60  1  0.28220000  0.35280000  0.80884000  1
  C  C61  1  0.25640000  0.98230000  0.58624000  1
  C  C62  1  0.24360000  0.48230000  0.58624000  1
  C  C63  1  0.21780000  0.85280000  0.80884000  1
  C  C64  1  0.19260000  0.33810000  0.72375000  1
  C  C65  1  0.16180000  0.46300000  0.67570000  1
  C  C66  1  0.05740000  0.27990000  0.74399000  1
  C  C67  1  0.02790000  0.66420000  0.33304000  1
  C  C68  1  0.01820000  0.74090000  0.42581000  1
  C  C69  1  0.00040000  0.68040000  0.16090000  1
  O  O70  1  0.98474000  0.68695000  0.49896000  1
  O  O71  1  0.97809000  0.53734000  0.34351000  1
  O  O72  1  0.97320000  0.57129000  0.12906000  1
  O  O73  1  0.95516000  0.14385000  0.58129000  1
  O  O74  1  0.92496000  0.23955000  0.87522000  1
  O  O75  1  0.88401000  0.05244000  0.99403000  1
  O  O76  1  0.86352000  0.03572000  0.40551000  1
  O  O77  1  0.86114000  0.05479000  0.19025000  1
  O  O78  1  0.83324000  0.41868000  0.01860000  1
  O  O79  1  0.81213000  0.48080000  0.48727000  1
  O  O80  1  0.77266000  0.23046000  0.13090000  1
  O  O81  1  0.72734000  0.73046000  0.13090000  1
  O  O82  1  0.68787000  0.98080000  0.48727000  1
  O  O83  1  0.66676000  0.91868000  0.01860000  1
  O  O84  1  0.63886000  0.55479000  0.19025000  1
  O  O85  1  0.63648000  0.53572000  0.40551000  1
  O  O86  1  0.61599000  0.55244000  0.99403000  1
  O  O87  1  0.57504000  0.73955000  0.87522000  1
  O  O88  1  0.54484000  0.64385000  0.58129000  1
  O  O89  1  0.52680000  0.07129000  0.12906000  1
  O  O90  1  0.52191000  0.03734000  0.34351000  1
  O  O91  1  0.51526000  0.18695000  0.49896000  1
  O  O92  1  0.48474000  0.81305000  0.50104000  1
  O  O93  1  0.47809000  0.96266000  0.65649000  1
  O  O94  1  0.47320000  0.92871000  0.87094000  1
  O  O95  1  0.45516000  0.35615000  0.41871000  1
  O  O96  1  0.42496000  0.26045000  0.12478000  1
  O  O97  1  0.38401000  0.44756000  0.00597000  1
  O  O98  1  0.36352000  0.46428000  0.59449000  1
  O  O99  1  0.36114000  0.44521000  0.80975000  1
  O  O100  1  0.33324000  0.08132000  0.98140000  1
  O  O101  1  0.31213000  0.01920000  0.51273000  1
  O  O102  1  0.27266000  0.26954000  0.86910000  1
  O  O103  1  0.22734000  0.76954000  0.86910000  1
  O  O104  1  0.18787000  0.51920000  0.51273000  1
  O  O105  1  0.16676000  0.58132000  0.98140000  1
  O  O106  1  0.13886000  0.94521000  0.80975000  1
  O  O107  1  0.13648000  0.96428000  0.59449000  1
  O  O108  1  0.11599000  0.94756000  0.00597000  1
  O  O109  1  0.07504000  0.76045000  0.12478000  1
  O  O110  1  0.04484000  0.85615000  0.41871000  1
  O  O111  1  0.02680000  0.42871000  0.87094000  1
  O  O112  1  0.02191000  0.46266000  0.65649000  1
  O  O113  1  0.01526000  0.31305000  0.50104000  1
