# generated using pymatgen
data_Cu3H13C12N9O7
_symmetry_space_group_name_H-M   'P 1'
_cell_length_a   18.30543877
_cell_length_b   18.30543877
_cell_length_c   18.30543877
_cell_angle_alpha   109.47122063
_cell_angle_beta   109.47122063
_cell_angle_gamma   109.47122063
_symmetry_Int_Tables_number   1
_chemical_formula_structural   Cu3H13C12N9O7
_chemical_formula_sum   'Cu12 H52 C48 N36 O28'
_cell_volume   4721.91905978
_cell_formula_units_Z   4
loop_
 _symmetry_equiv_pos_site_id
 _symmetry_equiv_pos_as_xyz
  1  'x, y, z'
loop_
 _atom_site_type_symbol
 _atom_site_label
 _atom_site_symmetry_multiplicity
 _atom_site_fract_x
 _atom_site_fract_y
 _atom_site_fract_z
 _atom_site_occupancy
  C  C0  1  0.35830000  0.35830000  0.70300000  1
  C  C1  1  0.65530000  0.65530000  0.29700000  1
  C  C2  1  0.38610000  0.38610000  0.64340000  1
  C  C3  1  0.74270000  0.74270000  0.35660000  1
  C  C4  1  0.35570000  0.73680000  0.92810000  1
  C  C5  1  0.42760000  0.80870000  0.07190000  1
  C  C6  1  0.73680000  0.35570000  0.92810000  1
  C  C7  1  0.80870000  0.42760000  0.07190000  1
  C  C8  1  0.29700000  0.65530000  0.65530000  1
  C  C9  1  0.64170000  1.00000000  0.34470000  1
  C  C10  1  0.65530000  0.29700000  0.65530000  1
  C  C11  1  0.00000000  0.64170000  0.34470000  1
  C  C12  1  0.38110000  0.57240000  0.64430000  1
  C  C13  1  0.57240000  0.38110000  0.64430000  1
  C  C14  1  0.73680000  0.92810000  0.35570000  1
  C  C15  1  0.92810000  0.73680000  0.35570000  1
  C  C16  1  0.35660000  0.74270000  0.74270000  1
  C  C17  1  0.61390000  0.00000000  0.25730000  1
  C  C18  1  0.74270000  0.35660000  0.74270000  1
  C  C19  1  0.00000000  0.61390000  0.25730000  1
  C  C20  1  0.38110000  0.64430000  0.57240000  1
  C  C21  1  0.64430000  0.38110000  0.57240000  1
  C  C22  1  0.80870000  0.07190000  0.42760000  1
  C  C23  1  0.07190000  0.80870000  0.42760000  1
  C  C24  1  0.35570000  0.92810000  0.73680000  1
  C  C25  1  0.61890000  0.19130000  0.26320000  1
  C  C26  1  0.92810000  0.35570000  0.73680000  1
  C  C27  1  0.19130000  0.61890000  0.26320000  1
  C  C28  1  0.38610000  0.64340000  0.38610000  1
  C  C29  1  0.64340000  0.38610000  0.38610000  1
  C  C30  1  0.00000000  0.25730000  0.61390000  1
  C  C31  1  0.25730000  0.00000000  0.61390000  1
  C  C32  1  0.42760000  0.07190000  0.80870000  1
  C  C33  1  0.61890000  0.26320000  0.19130000  1
  C  C34  1  0.07190000  0.42760000  0.80870000  1
  C  C35  1  0.26320000  0.61890000  0.19130000  1
  C  C36  1  0.35830000  0.70300000  0.35830000  1
  C  C37  1  0.70300000  0.35830000  0.35830000  1
  C  C38  1  0.00000000  0.34470000  0.64170000  1
  C  C39  1  0.34470000  1.00000000  0.64170000  1
  C  C40  1  0.57240000  0.64430000  0.38110000  1
  C  C41  1  0.64430000  0.57240000  0.38110000  1
  C  C42  1  0.19130000  0.26320000  0.61890000  1
  C  C43  1  0.26320000  0.19130000  0.61890000  1
  C  C44  1  0.61390000  0.25730000  0.00000000  1
  C  C45  1  0.25730000  0.61390000  0.00000000  1
  C  C46  1  0.64170000  0.34470000  0.00000000  1
  C  C47  1  0.34470000  0.64170000  0.00000000  1
  Cu  Cu48  1  0.49982000  0.49982000  0.61340000  1
  Cu  Cu49  1  0.88642000  0.88642000  0.38660000  1
  Cu  Cu50  1  0.38660000  0.88642000  0.88642000  1
  Cu  Cu51  1  0.50018000  0.00000000  0.11358000  1
  Cu  Cu52  1  0.88642000  0.38660000  0.88642000  1
  Cu  Cu53  1  0.00000000  0.50018000  0.11358000  1
  Cu  Cu54  1  0.49982000  0.61340000  0.49982000  1
  Cu  Cu55  1  0.61340000  0.49982000  0.49982000  1
  Cu  Cu56  1  0.00000000  0.11358000  0.50018000  1
  Cu  Cu57  1  0.11358000  0.00000000  0.50018000  1
  Cu  Cu58  1  0.50018000  0.11358000  0.00000000  1
  Cu  Cu59  1  0.11358000  0.50018000  0.00000000  1
  H  H60  1  0.35170000  0.40420000  0.74010000  1
  H  H61  1  0.40420000  0.35170000  0.74010000  1
  H  H62  1  0.61160000  0.66410000  0.25990000  1
  H  H63  1  0.66410000  0.61160000  0.25990000  1
  H  H64  1  0.31840000  0.69030000  0.86910000  1
  H  H65  1  0.44930000  0.82120000  0.13090000  1
  H  H66  1  0.69030000  0.31840000  0.86910000  1
  H  H67  1  0.82120000  0.44930000  0.13090000  1
  H  H68  1  0.25990000  0.61160000  0.66410000  1
  H  H69  1  0.59580000  0.94750000  0.33590000  1
  H  H70  1  0.61160000  0.25990000  0.66410000  1
  H  H71  1  0.94750000  0.59580000  0.33590000  1
  H  H72  1  0.37190000  0.55070000  0.68160000  1
  H  H73  1  0.55070000  0.37190000  0.68160000  1
  H  H74  1  0.69030000  0.86910000  0.31840000  1
  H  H75  1  0.86910000  0.69030000  0.31840000  1
  H  H76  1  0.25990000  0.66410000  0.61160000  1
  H  H77  1  0.64830000  0.05250000  0.38840000  1
  H  H78  1  0.66410000  0.25990000  0.61160000  1
  H  H79  1  0.05250000  0.64830000  0.38840000  1
  H  H80  1  0.46600000  0.46600000  0.46600000  1
  H  H81  1  0.00000000  0.00000000  0.53400000  1
  H  H82  1  0.31840000  0.86910000  0.69030000  1
  H  H83  1  0.62810000  0.17880000  0.30970000  1
  H  H84  1  0.86910000  0.31840000  0.69030000  1
  H  H85  1  0.17880000  0.62810000  0.30970000  1
  H  H86  1  0.37190000  0.68160000  0.55070000  1
  H  H87  1  0.68160000  0.37190000  0.55070000  1
  H  H88  1  0.82120000  0.13090000  0.44930000  1
  H  H89  1  0.13090000  0.82120000  0.44930000  1
  H  H90  1  0.53400000  1.00000000  0.00000000  1
  H  H91  1  0.00000000  0.53400000  1.00000000  1
  H  H92  1  0.35170000  0.74010000  0.40420000  1
  H  H93  1  0.74010000  0.35170000  0.40420000  1
  H  H94  1  0.94750000  0.33590000  0.59580000  1
  H  H95  1  0.33590000  0.94750000  0.59580000  1
  H  H96  1  0.44930000  0.13090000  0.82120000  1
  H  H97  1  0.62810000  0.30970000  0.17880000  1
  H  H98  1  0.13090000  0.44930000  0.82120000  1
  H  H99  1  0.30970000  0.62810000  0.17880000  1
  H  H100  1  0.40420000  0.74010000  0.35170000  1
  H  H101  1  0.74010000  0.40420000  0.35170000  1
  H  H102  1  0.05250000  0.38840000  0.64830000  1
  H  H103  1  0.38840000  0.05250000  0.64830000  1
  H  H104  1  0.55070000  0.68160000  0.37190000  1
  H  H105  1  0.68160000  0.55070000  0.37190000  1
  H  H106  1  0.17880000  0.30970000  0.62810000  1
  H  H107  1  0.30970000  0.17880000  0.62810000  1
  H  H108  1  0.59580000  0.33590000  0.94750000  1
  H  H109  1  0.64830000  0.38840000  0.05250000  1
  H  H110  1  0.33590000  0.59580000  0.94750000  1
  H  H111  1  0.38840000  0.64830000  0.05250000  1
  N  N112  1  0.37854000  0.72746000  0.00000000  1
  N  N113  1  0.72746000  0.37854000  0.00000000  1
  N  N114  1  0.39414000  0.82248000  0.95386000  1
  N  N115  1  0.44028000  0.86862000  0.04614000  1
  N  N116  1  0.82248000  0.39414000  0.95386000  1
  N  N117  1  0.86862000  0.44028000  0.04614000  1
  N  N118  1  0.34892000  0.62146000  0.62146000  1
  N  N119  1  0.62146000  0.34892000  0.62146000  1
  N  N120  1  0.72746000  0.00000000  0.37854000  1
  N  N121  1  0.00000000  0.72746000  0.37854000  1
  N  N122  1  0.42834000  0.55972000  0.60586000  1
  N  N123  1  0.55972000  0.42834000  0.60586000  1
  N  N124  1  0.82248000  0.95386000  0.39414000  1
  N  N125  1  0.95386000  0.82248000  0.39414000  1
  N  N126  1  0.42834000  0.60586000  0.55972000  1
  N  N127  1  0.60586000  0.42834000  0.55972000  1
  N  N128  1  0.86862000  0.04614000  0.44028000  1
  N  N129  1  0.04614000  0.86862000  0.44028000  1
  N  N130  1  0.39414000  0.95386000  0.82248000  1
  N  N131  1  0.57166000  0.13138000  0.17752000  1
  N  N132  1  0.95386000  0.39414000  0.82248000  1
  N  N133  1  0.13138000  0.57166000  0.17752000  1
  N  N134  1  0.44028000  0.04614000  0.86862000  1
  N  N135  1  0.57166000  0.17752000  0.13138000  1
  N  N136  1  0.04614000  0.44028000  0.86862000  1
  N  N137  1  0.17752000  0.57166000  0.13138000  1
  N  N138  1  0.37854000  1.00000000  0.72746000  1
  N  N139  1  0.65108000  0.27254000  0.27254000  1
  N  N140  1  0.00000000  0.37854000  0.72746000  1
  N  N141  1  0.27254000  0.65108000  0.27254000  1
  N  N142  1  0.55972000  0.60586000  0.42834000  1
  N  N143  1  0.60586000  0.55972000  0.42834000  1
  N  N144  1  0.13138000  0.17752000  0.57166000  1
  N  N145  1  0.17752000  0.13138000  0.57166000  1
  N  N146  1  0.62146000  0.62146000  0.34892000  1
  N  N147  1  0.27254000  0.27254000  0.65108000  1
  O  O148  1  0.33995000  0.33995000  0.56070000  1
  O  O149  1  0.77925000  0.77925000  0.43930000  1
  O  O150  1  0.45913000  0.45913000  0.68666000  1
  O  O151  1  0.77247000  0.77247000  0.31334000  1
  O  O152  1  0.31334000  0.77247000  0.77247000  1
  O  O153  1  0.54087000  0.00000000  0.22753000  1
  O  O154  1  0.77247000  0.31334000  0.77247000  1
  O  O155  1  0.00000000  0.54087000  0.22753000  1
  O  O156  1  0.43930000  0.77925000  0.77925000  1
  O  O157  1  0.66005000  0.00000000  0.22075000  1
  O  O158  1  0.77925000  0.43930000  0.77925000  1
  O  O159  1  0.00000000  0.66005000  0.22075000  1
  O  O160  1  0.48640000  0.00000000  0.00000000  1
  O  O161  1  0.00000000  0.48640000  0.00000000  1
  O  O162  1  0.51360000  0.51360000  0.51360000  1
  O  O163  1  0.00000000  0.00000000  0.48640000  1
  O  O164  1  0.33995000  0.56070000  0.33995000  1
  O  O165  1  0.56070000  0.33995000  0.33995000  1
  O  O166  1  0.00000000  0.22075000  0.66005000  1
  O  O167  1  0.22075000  0.00000000  0.66005000  1
  O  O168  1  0.45913000  0.68666000  0.45913000  1
  O  O169  1  0.68666000  0.45913000  0.45913000  1
  O  O170  1  0.00000000  0.22753000  0.54087000  1
  O  O171  1  0.22753000  0.00000000  0.54087000  1
  O  O172  1  0.54087000  0.22753000  0.00000000  1
  O  O173  1  0.22753000  0.54087000  0.00000000  1
  O  O174  1  0.66005000  0.22075000  0.00000000  1
  O  O175  1  0.22075000  0.66005000  0.00000000  1
