# generated using pymatgen
data_AgH8(CN)2
_symmetry_space_group_name_H-M   'P 1'
_cell_length_a   6.22100000
_cell_length_b   7.38546405
_cell_length_c   7.38546405
_cell_angle_alpha   92.31072169
_cell_angle_beta   106.68412779
_cell_angle_gamma   106.68412779
_symmetry_Int_Tables_number   1
_chemical_formula_structural   AgH8(CN)2
_chemical_formula_sum   'Ag2 H16 C4 N4'
_cell_volume   308.55827802
_cell_formula_units_Z   2
loop_
 _symmetry_equiv_pos_site_id
 _symmetry_equiv_pos_as_xyz
  1  'x, y, z'
loop_
 _atom_site_type_symbol
 _atom_site_label
 _atom_site_symmetry_multiplicity
 _atom_site_fract_x
 _atom_site_fract_y
 _atom_site_fract_z
 _atom_site_occupancy
  Ag  Ag0  1  1.00000000  0.50000000  0.50000000  1
  Ag  Ag1  1  0.50000000  0.50000000  0.50000000  1
  C  C2  1  0.54530000  0.52930000  0.10670000  1
  C  C3  1  0.04530000  0.10670000  0.52930000  1
  C  C4  1  0.45470000  0.47070000  0.89330000  1
  C  C5  1  0.95470000  0.89330000  0.47070000  1
  H  H6  1  0.56820000  0.66710000  0.13430000  1
  H  H7  1  0.06820000  0.13430000  0.66710000  1
  H  H8  1  0.70060000  0.50860000  0.15880000  1
  H  H9  1  0.20060000  0.15880000  0.50860000  1
  H  H10  1  0.23580000  0.43830000  0.15170000  1
  H  H11  1  0.73580000  0.15170000  0.43830000  1
  H  H12  1  0.63980000  0.70780000  0.82380000  1
  H  H13  1  0.13980000  0.82380000  0.70780000  1
  H  H14  1  0.36020000  0.29220000  0.17620000  1
  H  H15  1  0.86020000  0.17620000  0.29220000  1
  H  H16  1  0.76420000  0.56170000  0.84830000  1
  H  H17  1  0.26420000  0.84830000  0.56170000  1
  H  H18  1  0.29940000  0.49140000  0.84120000  1
  H  H19  1  0.79940000  0.84120000  0.49140000  1
  H  H20  1  0.43180000  0.33290000  0.86570000  1
  H  H21  1  0.93180000  0.86570000  0.33290000  1
  N  N22  1  0.38040000  0.42000000  0.20160000  1
  N  N23  1  0.88040000  0.20160000  0.42000000  1
  N  N24  1  0.61960000  0.58000000  0.79840000  1
  N  N25  1  0.11960000  0.79840000  0.58000000  1
