# generated using pymatgen
data_ZnH14C19N2O5
_symmetry_space_group_name_H-M   'P 1'
_cell_length_a   9.50637287
_cell_length_b   9.50637287
_cell_length_c   24.46180000
_cell_angle_alpha   86.46516405
_cell_angle_beta   86.46516405
_cell_angle_gamma   68.59140942
_symmetry_Int_Tables_number   1
_chemical_formula_structural   ZnH14C19N2O5
_chemical_formula_sum   'Zn4 H56 C76 N8 O20'
_cell_volume   2052.36907089
_cell_formula_units_Z   4
loop_
 _symmetry_equiv_pos_site_id
 _symmetry_equiv_pos_as_xyz
  1  'x, y, z'
loop_
 _atom_site_type_symbol
 _atom_site_label
 _atom_site_symmetry_multiplicity
 _atom_site_fract_x
 _atom_site_fract_y
 _atom_site_fract_z
 _atom_site_occupancy
  C  C0  1  0.46370000  0.56110000  0.86500000  1
  C  C1  1  0.56110000  0.46370000  0.36500000  1
  C  C2  1  0.55820000  0.58020000  0.15070000  1
  C  C3  1  0.58020000  0.55820000  0.65070000  1
  C  C4  1  0.48960000  0.71660000  0.12200000  1
  C  C5  1  0.71660000  0.48960000  0.62200000  1
  C  C6  1  0.57500000  0.64900000  0.69310000  1
  C  C7  1  0.64900000  0.57500000  0.19310000  1
  C  C8  1  0.48920000  0.75120000  0.50210000  1
  C  C9  1  0.75120000  0.48920000  0.00210000  1
  C  C10  1  0.41800000  0.84620000  0.54400000  1
  C  C11  1  0.84620000  0.41800000  0.04400000  1
  C  C12  1  0.28310000  0.02930000  0.63900000  1
  C  C13  1  0.02930000  0.28310000  0.13900000  1
  C  C14  1  0.22070000  0.12570000  0.68100000  1
  C  C15  1  0.12570000  0.22070000  0.18100000  1
  C  C16  1  0.51360000  0.84620000  0.13540000  1
  C  C17  1  0.84620000  0.51360000  0.63540000  1
  C  C18  1  0.67330000  0.70230000  0.20690000  1
  C  C19  1  0.70230000  0.67330000  0.70690000  1
  C  C20  1  0.55950000  0.82050000  0.31420000  1
  C  C21  1  0.82050000  0.55950000  0.81420000  1
  C  C22  1  0.50200000  0.90340000  0.57460000  1
  C  C23  1  0.90340000  0.50200000  0.07460000  1
  C  C24  1  0.49470000  0.91330000  0.35560000  1
  C  C25  1  0.91330000  0.49470000  0.85560000  1
  C  C26  1  0.43190000  0.00650000  0.61860000  1
  C  C27  1  0.00650000  0.43190000  0.11860000  1
  C  C28  1  0.44770000  0.99110000  0.10210000  1
  C  C29  1  0.99110000  0.44770000  0.60210000  1
  C  C30  1  0.60630000  0.83990000  0.17770000  1
  C  C31  1  0.83990000  0.60630000  0.67770000  1
  C  C32  1  0.69250000  0.78090000  0.75280000  1
  C  C33  1  0.78090000  0.69250000  0.25280000  1
  C  C34  1  0.34480000  0.13480000  0.43980000  1
  C  C35  1  0.13480000  0.34480000  0.93980000  1
  C  C36  1  0.72130000  0.77170000  0.51820000  1
  C  C37  1  0.77170000  0.72130000  0.01820000  1
  C  C38  1  0.27870000  0.22830000  0.48180000  1
  C  C39  1  0.22830000  0.27870000  0.98180000  1
  C  C40  1  0.65520000  0.86520000  0.56020000  1
  C  C41  1  0.86520000  0.65520000  0.06020000  1
  C  C42  1  0.30750000  0.21910000  0.24720000  1
  C  C43  1  0.21910000  0.30750000  0.74720000  1
  C  C44  1  0.39370000  0.16010000  0.82230000  1
  C  C45  1  0.16010000  0.39370000  0.32230000  1
  C  C46  1  0.55230000  0.00890000  0.89790000  1
  C  C47  1  0.00890000  0.55230000  0.39790000  1
  C  C48  1  0.56810000  0.99350000  0.38140000  1
  C  C49  1  0.99350000  0.56810000  0.88140000  1
  C  C50  1  0.50530000  0.08670000  0.64440000  1
  C  C51  1  0.08670000  0.50530000  0.14440000  1
  C  C52  1  0.49800000  0.09660000  0.42540000  1
  C  C53  1  0.09660000  0.49800000  0.92540000  1
  C  C54  1  0.44050000  0.17950000  0.68580000  1
  C  C55  1  0.17950000  0.44050000  0.18580000  1
  C  C56  1  0.32670000  0.29770000  0.79310000  1
  C  C57  1  0.29770000  0.32670000  0.29310000  1
  C  C58  1  0.48640000  0.15380000  0.86460000  1
  C  C59  1  0.15380000  0.48640000  0.36460000  1
  C  C60  1  0.77930000  0.87430000  0.31900000  1
  C  C61  1  0.87430000  0.77930000  0.81900000  1
  C  C62  1  0.71690000  0.97070000  0.36100000  1
  C  C63  1  0.97070000  0.71690000  0.86100000  1
  C  C64  1  0.58200000  0.15380000  0.45600000  1
  C  C65  1  0.15380000  0.58200000  0.95600000  1
  C  C66  1  0.51080000  0.24880000  0.49790000  1
  C  C67  1  0.24880000  0.51080000  0.99790000  1
  C  C68  1  0.42500000  0.35100000  0.30690000  1
  C  C69  1  0.35100000  0.42500000  0.80690000  1
  C  C70  1  0.51040000  0.28340000  0.87800000  1
  C  C71  1  0.28340000  0.51040000  0.37800000  1
  C  C72  1  0.44180000  0.41980000  0.84930000  1
  C  C73  1  0.41980000  0.44180000  0.34930000  1
  C  C74  1  0.53630000  0.43890000  0.13500000  1
  C  C75  1  0.43890000  0.53630000  0.63500000  1
  H  H76  1  0.43095000  0.71269000  0.48140000  1
  H  H77  1  0.71269000  0.43095000  0.98140000  1
  H  H78  1  0.25900000  0.88500000  0.96600000  1
  H  H79  1  0.88500000  0.25900000  0.46600000  1
  H  H80  1  0.42585000  0.72163000  0.09292000  1
  H  H81  1  0.72163000  0.42585000  0.59292000  1
  H  H82  1  0.48220000  0.69560000  0.71318000  1
  H  H83  1  0.69560000  0.48220000  0.21318000  1
  H  H84  1  0.31267000  0.87213000  0.55191000  1
  H  H85  1  0.87213000  0.31267000  0.05191000  1
  H  H86  1  0.22639000  0.97839000  0.62373000  1
  H  H87  1  0.97839000  0.22639000  0.12373000  1
  H  H88  1  0.14046000  0.12068000  0.19450000  1
  H  H89  1  0.12068000  0.14046000  0.69450000  1
  H  H90  1  0.50470000  0.76960000  0.29776000  1
  H  H91  1  0.76960000  0.50470000  0.79776000  1
  H  H92  1  0.39444000  0.92488000  0.36792000  1
  H  H93  1  0.92488000  0.39444000  0.86792000  1
  H  H94  1  0.28558000  0.09516000  0.42011000  1
  H  H95  1  0.09516000  0.28558000  0.92011000  1
  H  H96  1  0.58820000  0.81922000  0.76912000  1
  H  H97  1  0.81922000  0.58820000  0.26912000  1
  H  H98  1  0.28380000  0.13136000  0.26285000  1
  H  H99  1  0.13136000  0.28380000  0.76285000  1
  H  H100  1  0.25139000  0.17435000  0.99104000  1
  H  H101  1  0.17435000  0.25139000  0.49104000  1
  H  H102  1  0.37569000  0.07249000  0.81324000  1
  H  H103  1  0.07249000  0.37569000  0.31324000  1
  H  H104  1  0.62431000  0.92751000  0.18676000  1
  H  H105  1  0.92751000  0.62431000  0.68676000  1
  H  H106  1  0.74861000  0.82565000  0.00896000  1
  H  H107  1  0.82565000  0.74861000  0.50896000  1
  H  H108  1  0.71620000  0.86864000  0.73715000  1
  H  H109  1  0.86864000  0.71620000  0.23715000  1
  H  H110  1  0.41180000  0.18078000  0.23088000  1
  H  H111  1  0.18078000  0.41180000  0.73088000  1
  H  H112  1  0.71442000  0.90484000  0.57989000  1
  H  H113  1  0.90484000  0.71442000  0.07989000  1
  H  H114  1  0.60556000  0.07512000  0.63208000  1
  H  H115  1  0.07512000  0.60556000  0.13208000  1
  H  H116  1  0.49530000  0.23040000  0.70224000  1
  H  H117  1  0.23040000  0.49530000  0.20224000  1
  H  H118  1  0.85954000  0.87932000  0.80550000  1
  H  H119  1  0.87932000  0.85954000  0.30550000  1
  H  H120  1  0.77361000  0.02161000  0.37627000  1
  H  H121  1  0.02161000  0.77361000  0.87627000  1
  H  H122  1  0.68733000  0.12787000  0.44809000  1
  H  H123  1  0.12787000  0.68733000  0.94809000  1
  H  H124  1  0.51780000  0.30440000  0.28682000  1
  H  H125  1  0.30440000  0.51780000  0.78682000  1
  H  H126  1  0.57415000  0.27837000  0.90708000  1
  H  H127  1  0.27837000  0.57415000  0.40708000  1
  H  H128  1  0.74100000  0.11500000  0.03400000  1
  H  H129  1  0.11500000  0.74100000  0.53400000  1
  H  H130  1  0.56905000  0.28731000  0.51860000  1
  H  H131  1  0.28731000  0.56905000  0.01860000  1
  N  N132  1  0.64090000  0.71050000  0.48920000  1
  N  N133  1  0.71050000  0.64090000  0.98920000  1
  N  N134  1  0.29820000  0.19960000  0.70360000  1
  N  N135  1  0.19960000  0.29820000  0.20360000  1
  N  N136  1  0.70180000  0.80040000  0.29640000  1
  N  N137  1  0.80040000  0.70180000  0.79640000  1
  N  N138  1  0.35910000  0.28950000  0.51080000  1
  N  N139  1  0.28950000  0.35910000  0.01080000  1
  O  O140  1  0.39460000  0.67860000  0.84230000  1
  O  O141  1  0.67860000  0.39460000  0.34230000  1
  O  O142  1  0.54790000  0.54950000  0.40340000  1
  O  O143  1  0.54950000  0.54790000  0.90340000  1
  O  O144  1  0.36720000  0.81560000  0.98180000  1
  O  O145  1  0.81560000  0.36720000  0.48180000  1
  O  O146  1  0.39350000  0.99090000  0.05800000  1
  O  O147  1  0.99090000  0.39350000  0.55800000  1
  O  O148  1  0.54860000  0.89180000  0.87810000  1
  O  O149  1  0.89180000  0.54860000  0.37810000  1
  O  O150  1  0.45140000  0.10820000  0.12190000  1
  O  O151  1  0.10820000  0.45140000  0.62190000  1
  O  O152  1  0.60650000  0.00910000  0.94200000  1
  O  O153  1  0.00910000  0.60650000  0.44200000  1
  O  O154  1  0.63280000  0.18440000  0.01820000  1
  O  O155  1  0.18440000  0.63280000  0.51820000  1
  O  O156  1  0.45210000  0.45050000  0.59660000  1
  O  O157  1  0.45050000  0.45210000  0.09660000  1
  O  O158  1  0.60540000  0.32140000  0.15770000  1
  O  O159  1  0.32140000  0.60540000  0.65770000  1
  Zn  Zn160  1  0.55085000  0.73245000  0.93152000  1
  Zn  Zn161  1  0.73245000  0.55085000  0.43152000  1
  Zn  Zn162  1  0.44915000  0.26755000  0.06848000  1
  Zn  Zn163  1  0.26755000  0.44915000  0.56848000  1
