# generated using pymatgen
data_TbH32C40(NO)8
_symmetry_space_group_name_H-M   'P 1'
_cell_length_a   24.09210000
_cell_length_b   24.19140000
_cell_length_c   24.39920000
_cell_angle_alpha   85.80700000
_cell_angle_beta   61.40400000
_cell_angle_gamma   61.02900000
_symmetry_Int_Tables_number   1
_chemical_formula_structural   TbH32C40(NO)8
_chemical_formula_sum   'Tb6 H192 C240 N48 O48'
_cell_volume   10687.60818776
_cell_formula_units_Z   6
loop_
 _symmetry_equiv_pos_site_id
 _symmetry_equiv_pos_as_xyz
  1  'x, y, z'
loop_
 _atom_site_type_symbol
 _atom_site_label
 _atom_site_symmetry_multiplicity
 _atom_site_fract_x
 _atom_site_fract_y
 _atom_site_fract_z
 _atom_site_occupancy
  Tb  Tb0  1  0.14732000  0.28605000  0.64573000  1
  Tb  Tb1  1  0.25693000  0.71859000  0.75826000  1
  Tb  Tb2  1  0.36467000  0.84485000  0.19740000  1
  Tb  Tb3  1  0.63533000  0.15515000  0.80260000  1
  Tb  Tb4  1  0.74307000  0.28141000  0.24174000  1
  Tb  Tb5  1  0.85268000  0.71394000  0.35427000  1
  H  H6  1  0.00120000  0.83050000  0.38180000  1
  H  H7  1  0.01750000  0.53670000  0.33710000  1
  H  H8  1  0.01880000  0.81590000  0.02630000  1
  H  H9  1  0.02260000  0.46970000  0.74990000  1
  H  H10  1  0.03340000  0.83640000  0.67900000  1
  H  H11  1  0.04430000  0.55470000  0.74180000  1
  H  H12  1  0.04570000  0.62290000  0.17590000  1
  H  H13  1  0.05640000  0.89430000  0.84020000  1
  H  H14  1  0.05720000  0.06560000  0.32490000  1
  H  H15  1  0.05900000  0.05940000  0.14730000  1
  H  H16  1  0.06530000  0.62910000  0.77010000  1
  H  H17  1  0.06910000  0.18820000  0.88680000  1
  H  H18  1  0.07020000  0.82430000  0.91980000  1
  H  H19  1  0.07170000  0.86120000  0.35340000  1
  H  H20  1  0.07330000  0.63270000  0.28310000  1
  H  H21  1  0.07430000  0.48050000  0.39280000  1
  H  H22  1  0.07630000  0.21020000  0.57520000  1
  H  H23  1  0.08050000  0.63220000  0.97130000  1
  H  H24  1  0.08600000  0.15700000  0.69360000  1
  H  H25  1  0.08720000  0.62350000  0.06860000  1
  H  H26  1  0.10010000  0.70670000  0.75530000  1
  H  H27  1  0.10780000  0.19000000  0.77920000  1
  H  H28  1  0.11090000  0.06660000  0.73730000  1
  H  H29  1  0.12080000  0.43000000  0.44400000  1
  H  H30  1  0.13220000  0.64290000  0.86530000  1
  H  H31  1  0.14170000  0.26090000  0.49050000  1
  H  H32  1  0.14330000  0.90840000  0.30840000  1
  H  H33  1  0.14640000  0.00190000  0.79770000  1
  H  H34  1  0.14940000  0.79160000  0.66880000  1
  H  H35  1  0.15260000  0.67260000  0.24090000  1
  H  H36  1  0.16230000  0.06730000  0.13670000  1
  H  H37  1  0.16850000  0.17090000  0.43120000  1
  H  H38  1  0.16990000  0.26450000  0.80040000  1
  H  H39  1  0.17200000  0.90660000  0.83610000  1
  H  H40  1  0.17210000  0.00160000  0.31710000  1
  H  H41  1  0.17520000  0.82400000  0.92560000  1
  H  H42  1  0.17780000  0.37790000  0.50290000  1
  H  H43  1  0.18990000  0.05890000  0.43980000  1
  H  H44  1  0.20730000  0.72320000  0.19130000  1
  H  H45  1  0.20810000  0.83880000  0.47570000  1
  H  H46  1  0.21000000  0.85550000  0.38050000  1
  H  H47  1  0.21330000  0.86280000  0.97770000  1
  H  H48  1  0.22190000  0.96080000  0.39020000  1
  H  H49  1  0.22340000  0.34710000  0.72300000  1
  H  H50  1  0.22920000  0.39860000  0.59000000  1
  H  H51  1  0.23230000  0.88270000  0.04150000  1
  H  H52  1  0.24670000  0.60370000  0.88620000  1
  H  H53  1  0.24750000  0.43060000  0.71430000  1
  H  H54  1  0.24770000  0.26800000  0.82920000  1
  H  H55  1  0.24920000  0.84280000  0.54110000  1
  H  H56  1  0.25990000  0.82730000  0.63210000  1
  H  H57  1  0.26210000  0.91660000  0.10470000  1
  H  H58  1  0.27420000  0.00820000  0.13400000  1
  H  H59  1  0.27720000  0.77240000  0.14930000  1
  H  H60  1  0.27830000  0.49290000  0.65320000  1
  H  H61  1  0.29950000  0.09090000  0.57770000  1
  H  H62  1  0.31050000  0.57130000  0.63960000  1
  H  H63  1  0.31200000  0.41860000  0.50360000  1
  H  H64  1  0.32440000  0.52550000  0.91780000  1
  H  H65  1  0.32740000  0.24740000  0.85860000  1
  H  H66  1  0.32930000  0.99690000  0.61730000  1
  H  H67  1  0.33950000  0.16240000  0.47590000  1
  H  H68  1  0.34130000  0.90400000  0.63470000  1
  H  H69  1  0.34370000  0.14920000  0.63250000  1
  H  H70  1  0.36430000  0.65460000  0.85440000  1
  H  H71  1  0.36490000  0.81010000  0.67440000  1
  H  H72  1  0.36750000  0.67740000  0.19880000  1
  H  H73  1  0.36870000  0.07320000  0.41450000  1
  H  H74  1  0.37420000  0.20790000  0.53170000  1
  H  H75  1  0.37670000  0.64890000  0.47400000  1
  H  H76  1  0.37820000  0.41260000  0.92040000  1
  H  H77  1  0.38320000  0.63740000  0.56750000  1
  H  H78  1  0.39120000  0.99410000  0.17770000  1
  H  H79  1  0.39310000  0.02600000  0.31420000  1
  H  H80  1  0.40370000  0.52930000  0.70400000  1
  H  H81  1  0.40560000  0.69200000  0.90430000  1
  H  H82  1  0.41030000  0.25560000  0.87640000  1
  H  H83  1  0.41040000  0.69990000  0.28500000  1
  H  H84  1  0.41060000  0.67850000  0.38010000  1
  H  H85  1  0.41180000  0.05670000  0.10060000  1
  H  H86  1  0.42270000  0.15210000  0.65920000  1
  H  H87  1  0.42270000  0.92800000  0.26540000  1
  H  H88  1  0.42630000  0.72380000  0.74440000  1
  H  H89  1  0.43070000  0.10800000  0.03310000  1
  H  H90  1  0.43340000  0.40910000  0.45630000  1
  H  H91  1  0.44300000  0.58200000  0.21640000  1
  H  H92  1  0.44330000  0.73810000  0.93970000  1
  H  H93  1  0.44480000  0.79240000  0.31070000  1
  H  H94  1  0.45420000  0.16760000  0.95400000  1
  H  H95  1  0.45520000  0.22450000  0.43990000  1
  H  H96  1  0.45780000  0.31470000  0.93290000  1
  H  H97  1  0.47120000  0.58160000  0.62800000  1
  H  H98  1  0.47200000  0.77380000  0.00300000  1
  H  H99  1  0.47720000  0.19000000  0.66940000  1
  H  H100  1  0.48130000  0.26250000  0.34020000  1
  H  H101  1  0.48220000  0.44960000  0.73300000  1
  H  H102  1  0.51780000  0.55040000  0.26700000  1
  H  H103  1  0.51870000  0.73750000  0.65980000  1
  H  H104  1  0.52280000  0.81000000  0.33060000  1
  H  H105  1  0.52800000  0.22620000  0.99700000  1
  H  H106  1  0.52880000  0.41840000  0.37200000  1
  H  H107  1  0.54220000  0.68530000  0.06710000  1
  H  H108  1  0.54480000  0.77550000  0.56010000  1
  H  H109  1  0.54580000  0.83240000  0.04600000  1
  H  H110  1  0.55520000  0.20760000  0.68930000  1
  H  H111  1  0.55670000  0.26190000  0.06030000  1
  H  H112  1  0.55700000  0.41800000  0.78360000  1
  H  H113  1  0.56660000  0.59090000  0.54370000  1
  H  H114  1  0.56930000  0.89200000  0.96690000  1
  H  H115  1  0.57370000  0.27620000  0.25560000  1
  H  H116  1  0.57730000  0.07200000  0.73460000  1
  H  H117  1  0.57730000  0.84790000  0.34080000  1
  H  H118  1  0.58820000  0.94330000  0.89940000  1
  H  H119  1  0.58940000  0.32150000  0.61990000  1
  H  H120  1  0.58960000  0.30010000  0.71500000  1
  H  H121  1  0.58970000  0.74440000  0.12360000  1
  H  H122  1  0.59440000  0.30800000  0.09570000  1
  H  H123  1  0.59630000  0.47070000  0.29600000  1
  H  H124  1  0.60690000  0.97400000  0.68580000  1
  H  H125  1  0.60880000  0.00590000  0.82230000  1
  H  H126  1  0.61680000  0.36260000  0.43250000  1
  H  H127  1  0.62180000  0.58740000  0.07960000  1
  H  H128  1  0.62330000  0.35110000  0.52600000  1
  H  H129  1  0.62580000  0.79210000  0.46830000  1
  H  H130  1  0.63130000  0.92680000  0.58550000  1
  H  H131  1  0.63250000  0.32260000  0.80120000  1
  H  H132  1  0.63510000  0.18990000  0.32560000  1
  H  H133  1  0.63570000  0.34540000  0.14560000  1
  H  H134  1  0.65630000  0.85080000  0.36750000  1
  H  H135  1  0.65870000  0.09600000  0.36530000  1
  H  H136  1  0.66050000  0.83760000  0.52410000  1
  H  H137  1  0.67070000  0.00310000  0.38270000  1
  H  H138  1  0.67260000  0.75260000  0.14140000  1
  H  H139  1  0.67560000  0.47450000  0.08220000  1
  H  H140  1  0.68800000  0.58140000  0.49640000  1
  H  H141  1  0.68950000  0.42870000  0.36040000  1
  H  H142  1  0.70050000  0.90910000  0.42230000  1
  H  H143  1  0.72170000  0.50710000  0.34680000  1
  H  H144  1  0.72280000  0.22760000  0.85070000  1
  H  H145  1  0.72580000  0.99180000  0.86600000  1
  H  H146  1  0.73790000  0.08340000  0.89530000  1
  H  H147  1  0.74010000  0.17270000  0.36790000  1
  H  H148  1  0.75080000  0.15720000  0.45890000  1
  H  H149  1  0.75230000  0.73200000  0.17080000  1
  H  H150  1  0.75250000  0.56940000  0.28570000  1
  H  H151  1  0.75330000  0.39630000  0.11380000  1
  H  H152  1  0.76770000  0.11730000  0.95850000  1
  H  H153  1  0.77080000  0.60140000  0.41000000  1
  H  H154  1  0.77660000  0.65290000  0.27700000  1
  H  H155  1  0.77810000  0.03920000  0.60980000  1
  H  H156  1  0.78670000  0.13720000  0.02230000  1
  H  H157  1  0.79000000  0.14450000  0.61950000  1
  H  H158  1  0.79190000  0.16120000  0.52430000  1
  H  H159  1  0.79270000  0.27680000  0.80870000  1
  H  H160  1  0.81010000  0.94110000  0.56020000  1
  H  H161  1  0.82220000  0.62210000  0.49710000  1
  H  H162  1  0.82480000  0.17600000  0.07440000  1
  H  H163  1  0.82790000  0.99840000  0.68290000  1
  H  H164  1  0.82800000  0.09340000  0.16390000  1
  H  H165  1  0.83010000  0.73550000  0.19960000  1
  H  H166  1  0.83150000  0.82910000  0.56880000  1
  H  H167  1  0.83770000  0.93270000  0.86330000  1
  H  H168  1  0.84740000  0.32740000  0.75910000  1
  H  H169  1  0.85060000  0.20840000  0.33120000  1
  H  H170  1  0.85360000  0.99810000  0.20230000  1
  H  H171  1  0.85670000  0.09160000  0.69160000  1
  H  H172  1  0.85830000  0.73910000  0.50950000  1
  H  H173  1  0.86780000  0.35710000  0.13470000  1
  H  H174  1  0.87920000  0.57000000  0.55600000  1
  H  H175  1  0.88910000  0.93340000  0.26270000  1
  H  H176  1  0.89220000  0.81000000  0.22080000  1
  H  H177  1  0.89990000  0.29330000  0.24470000  1
  H  H178  1  0.91280000  0.37650000  0.93140000  1
  H  H179  1  0.91400000  0.84300000  0.30640000  1
  H  H180  1  0.91950000  0.36780000  0.02870000  1
  H  H181  1  0.92370000  0.78980000  0.42480000  1
  H  H182  1  0.92570000  0.51950000  0.60720000  1
  H  H183  1  0.92670000  0.36730000  0.71690000  1
  H  H184  1  0.92830000  0.13880000  0.64660000  1
  H  H185  1  0.92980000  0.17570000  0.08020000  1
  H  H186  1  0.93090000  0.81180000  0.11320000  1
  H  H187  1  0.93470000  0.37090000  0.22990000  1
  H  H188  1  0.94100000  0.94060000  0.85270000  1
  H  H189  1  0.94280000  0.93440000  0.67510000  1
  H  H190  1  0.94360000  0.10570000  0.15980000  1
  H  H191  1  0.95430000  0.37710000  0.82410000  1
  H  H192  1  0.95570000  0.44530000  0.25820000  1
  H  H193  1  0.96660000  0.16360000  0.32100000  1
  H  H194  1  0.97740000  0.53030000  0.25010000  1
  H  H195  1  0.98120000  0.18410000  0.97370000  1
  H  H196  1  0.98250000  0.46330000  0.66290000  1
  H  H197  1  0.99880000  0.16950000  0.61820000  1
  C  C198  1  0.01120000  0.45790000  0.61810000  1
  C  C199  1  0.01570000  0.71860000  0.07900000  1
  C  C200  1  0.01630000  0.79000000  0.36100000  1
  C  C201  1  0.01710000  0.08910000  0.18560000  1
  C  C202  1  0.01800000  0.48270000  0.51870000  1
  C  C203  1  0.02250000  0.50930000  0.41510000  1
  C  C204  1  0.02390000  0.66170000  0.16270000  1
  C  C205  1  0.02610000  0.10430000  0.23320000  1
  C  C206  1  0.02990000  0.23380000  0.61320000  1
  C  C207  1  0.03760000  0.84940000  0.71190000  1
  C  C208  1  0.04230000  0.77980000  0.99390000  1
  C  C209  1  0.04400000  0.22660000  0.87470000  1
  C  C210  1  0.04560000  0.72290000  0.01080000  1
  C  C211  1  0.04780000  0.66230000  0.09940000  1
  C  C212  1  0.05140000  0.88360000  0.80680000  1
  C  C213  1  0.05860000  0.67340000  0.30320000  1
  C  C214  1  0.06710000  0.22770000  0.81090000  1
  C  C215  1  0.06850000  0.46170000  0.74240000  1
  C  C216  1  0.07250000  0.78510000  0.93070000  1
  C  C217  1  0.07880000  0.67160000  0.96150000  1
  C  C218  1  0.08180000  0.51230000  0.73710000  1
  C  C219  1  0.08420000  0.75740000  0.30590000  1
  C  C220  1  0.09200000  0.43890000  0.48930000  1
  C  C221  1  0.09740000  0.07050000  0.23050000  1
  C  C222  1  0.10110000  0.05250000  0.28490000  1
  C  C223  1  0.10540000  0.69740000  0.27790000  1
  C  C224  1  0.10650000  0.82280000  0.70580000  1
  C  C225  1  0.10890000  0.67810000  0.89870000  1
  C  C226  1  0.11340000  0.84250000  0.31160000  1
  C  C227  1  0.11560000  0.61660000  0.74370000  1
  C  C228  1  0.12610000  0.40700000  0.52400000  1
  C  C229  1  0.13140000  0.78640000  0.27740000  1
  C  C230  1  0.13580000  0.12400000  0.67840000  1
  C  C231  1  0.13620000  0.66270000  0.73480000  1
  C  C232  1  0.14880000  0.50170000  0.72490000  1
  C  C233  1  0.15060000  0.07050000  0.70460000  1
  C  C234  1  0.15590000  0.87050000  0.28480000  1
  C  C235  1  0.16320000  0.05410000  0.17400000  1
  C  C236  1  0.16860000  0.55190000  0.71410000  1
  C  C237  1  0.16930000  0.01540000  0.28050000  1
  C  C238  1  0.18700000  0.38970000  0.72650000  1
  C  C239  1  0.18720000  0.22150000  0.47660000  1
  C  C240  1  0.19100000  0.96290000  0.77150000  1
  C  C241  1  0.19350000  0.76100000  0.21600000  1
  C  C242  1  0.20160000  0.43910000  0.72090000  1
  C  C243  1  0.20360000  0.16840000  0.44050000  1
  C  C244  1  0.20630000  0.90610000  0.79450000  1
  C  C245  1  0.22150000  0.24240000  0.77140000  1
  C  C246  1  0.22180000  0.79700000  0.92220000  1
  C  C247  1  0.22230000  0.02180000  0.68450000  1
  C  C248  1  0.22970000  0.01860000  0.17230000  1
  C  C249  1  0.23490000  0.79040000  0.19090000  1
  C  C250  1  0.23810000  0.03220000  0.40470000  1
  C  C251  1  0.23990000  0.96340000  0.71090000  1
  C  C252  1  0.24120000  0.53640000  0.67480000  1
  C  C253  1  0.24450000  0.81990000  0.95320000  1
  C  C254  1  0.25010000  0.80990000  0.43690000  1
  C  C255  1  0.25130000  0.81990000  0.38060000  1
  C  C256  1  0.25700000  0.97410000  0.37490000  1
  C  C257  1  0.26050000  0.58280000  0.66650000  1
  C  C258  1  0.26120000  0.08510000  0.60990000  1
  C  C259  1  0.26800000  0.24450000  0.78840000  1
  C  C260  1  0.27120000  0.11160000  0.41800000  1
  C  C261  1  0.27620000  0.36360000  0.56010000  1
  C  C262  1  0.27750000  0.80050000  0.54540000  1
  C  C263  1  0.27910000  0.02970000  0.63410000  1
  C  C264  1  0.28120000  0.85930000  0.03370000  1
  C  C265  1  0.28430000  0.79130000  0.59920000  1
  C  C266  1  0.28960000  0.05100000  0.38330000  1
  C  C267  1  0.29520000  0.57190000  0.85490000  1
  C  C268  1  0.29900000  0.88010000  0.07060000  1
  C  C269  1  0.30420000  0.16360000  0.46770000  1
  C  C270  1  0.30550000  0.90520000  0.67580000  1
  C  C271  1  0.30980000  0.75770000  0.43820000  1
  C  C272  1  0.31210000  0.74780000  0.49770000  1
  C  C273  1  0.31280000  0.78050000  0.94870000  1
  C  C274  1  0.31980000  0.84930000  0.69930000  1
  C  C275  1  0.32130000  0.11090000  0.43110000  1
  C  C276  1  0.32420000  0.17430000  0.67220000  1
  C  C277  1  0.32490000  0.37540000  0.50810000  1
  C  C278  1  0.33360000  0.69690000  0.87990000  1
  C  C279  1  0.33450000  0.80410000  0.98480000  1
  C  C280  1  0.34150000  0.52520000  0.87370000  1
  C  C281  1  0.34430000  0.21250000  0.74640000  1
  C  C282  1  0.35270000  0.68580000  0.50560000  1
  C  C283  1  0.35720000  0.67930000  0.56100000  1
  C  C284  1  0.35780000  0.01290000  0.33070000  1
  C  C285  1  0.35780000  0.71910000  0.91010000  1
  C  C286  1  0.36180000  0.25050000  0.52490000  1
  C  C287  1  0.36920000  0.72800000  0.32450000  1
  C  C288  1  0.36970000  0.71550000  0.38080000  1
  C  C289  1  0.37110000  0.17610000  0.68830000  1
  C  C290  1  0.37390000  0.23810000  0.82370000  1
  C  C291  1  0.37530000  0.95470000  0.30140000  1
  C  C292  1  0.38730000  0.52820000  0.74780000  1
  C  C293  1  0.39330000  0.21880000  0.76120000  1
  C  C294  1  0.39370000  0.32360000  0.46140000  1
  C  C295  1  0.40530000  0.77440000  0.97380000  1
  C  C296  1  0.41020000  0.26050000  0.47090000  1
  C  C297  1  0.41210000  0.47850000  0.82900000  1
  C  C298  1  0.41920000  0.65990000  0.17640000  1
  C  C299  1  0.42300000  0.79590000  0.01100000  1
  C  C300  1  0.42310000  0.24370000  0.83400000  1
  C  C301  1  0.42750000  0.97360000  0.13430000  1
  C  C302  1  0.43000000  0.39360000  0.89390000  1
  C  C303  1  0.43400000  0.48100000  0.76520000  1
  C  C304  1  0.43960000  0.01100000  0.08840000  1
  C  C305  1  0.44910000  0.33300000  0.40640000  1
  C  C306  1  0.45340000  0.69830000  0.70280000  1
  C  C307  1  0.45950000  0.42390000  0.84650000  1
  C  C308  1  0.46190000  0.20540000  0.71180000  1
  C  C309  1  0.46280000  0.38080000  0.41600000  1
  C  C310  1  0.46420000  0.60330000  0.18640000  1
  C  C311  1  0.46780000  0.08610000  0.99020000  1
  C  C312  1  0.47740000  0.33590000  0.90160000  1
  C  C313  1  0.48060000  0.61390000  0.63400000  1
  C  C314  1  0.48150000  0.12180000  0.94310000  1
  C  C315  1  0.49050000  0.29450000  0.34740000  1
  C  C316  1  0.49050000  0.78580000  0.27650000  1
  C  C317  1  0.49250000  0.98100000  0.02470000  1
  C  C318  1  0.50750000  0.01900000  0.97530000  1
  C  C319  1  0.50950000  0.21420000  0.72350000  1
  C  C320  1  0.50950000  0.70550000  0.65260000  1
  C  C321  1  0.51850000  0.87820000  0.05690000  1
  C  C322  1  0.51940000  0.38610000  0.36600000  1
  C  C323  1  0.52260000  0.66410000  0.09840000  1
  C  C324  1  0.53220000  0.91390000  0.00980000  1
  C  C325  1  0.53580000  0.39670000  0.81360000  1
  C  C326  1  0.53720000  0.61920000  0.58400000  1
  C  C327  1  0.53810000  0.79460000  0.28820000  1
  C  C328  1  0.54050000  0.57610000  0.15350000  1
  C  C329  1  0.54660000  0.30170000  0.29720000  1
  C  C330  1  0.55090000  0.66700000  0.59360000  1
  C  C331  1  0.56040000  0.98900000  0.91160000  1
  C  C332  1  0.56600000  0.51900000  0.23480000  1
  C  C333  1  0.57000000  0.60640000  0.10610000  1
  C  C334  1  0.57250000  0.02640000  0.86570000  1
  C  C335  1  0.57690000  0.75630000  0.16600000  1
  C  C336  1  0.57700000  0.20410000  0.98900000  1
  C  C337  1  0.58080000  0.34010000  0.82360000  1
  C  C338  1  0.58790000  0.52150000  0.17100000  1
  C  C339  1  0.58980000  0.73950000  0.52910000  1
  C  C340  1  0.59470000  0.22560000  0.02620000  1
  C  C341  1  0.60630000  0.67640000  0.53860000  1
  C  C342  1  0.60670000  0.78120000  0.23880000  1
  C  C343  1  0.61270000  0.47180000  0.25220000  1
  C  C344  1  0.62470000  0.04530000  0.69860000  1
  C  C345  1  0.62610000  0.76190000  0.17630000  1
  C  C346  1  0.62890000  0.82390000  0.31170000  1
  C  C347  1  0.63030000  0.28450000  0.61920000  1
  C  C348  1  0.63080000  0.27200000  0.67550000  1
  C  C349  1  0.63820000  0.74950000  0.47510000  1
  C  C350  1  0.64220000  0.28090000  0.08990000  1
  C  C351  1  0.64220000  0.98710000  0.66930000  1
  C  C352  1  0.64280000  0.32070000  0.43900000  1
  C  C353  1  0.64730000  0.31420000  0.49440000  1
  C  C354  1  0.65570000  0.78750000  0.25360000  1
  C  C355  1  0.65850000  0.47480000  0.12630000  1
  C  C356  1  0.66550000  0.19590000  0.01520000  1
  C  C357  1  0.66640000  0.30310000  0.12010000  1
  C  C358  1  0.67510000  0.62460000  0.49190000  1
  C  C359  1  0.67580000  0.82570000  0.32780000  1
  C  C360  1  0.67870000  0.88910000  0.56890000  1
  C  C361  1  0.68020000  0.15070000  0.30070000  1
  C  C362  1  0.68720000  0.21950000  0.05130000  1
  C  C363  1  0.68790000  0.25220000  0.50230000  1
  C  C364  1  0.69020000  0.24230000  0.56180000  1
  C  C365  1  0.69450000  0.09480000  0.32420000  1
  C  C366  1  0.69580000  0.83640000  0.53230000  1
  C  C367  1  0.70100000  0.11990000  0.92940000  1
  C  C368  1  0.70480000  0.42810000  0.14510000  1
  C  C369  1  0.71040000  0.94900000  0.61670000  1
  C  C370  1  0.71570000  0.20870000  0.40080000  1
  C  C371  1  0.71880000  0.14070000  0.96630000  1
  C  C372  1  0.72090000  0.97030000  0.36590000  1
  C  C373  1  0.72250000  0.19950000  0.45460000  1
  C  C374  1  0.72380000  0.63640000  0.43990000  1
  C  C375  1  0.72880000  0.88840000  0.58200000  1
  C  C376  1  0.73200000  0.75550000  0.21160000  1
  C  C377  1  0.73880000  0.91490000  0.39010000  1
  C  C378  1  0.73950000  0.41720000  0.33350000  1
  C  C379  1  0.74300000  0.02590000  0.62510000  1
  C  C380  1  0.74870000  0.18010000  0.61940000  1
  C  C381  1  0.74990000  0.19010000  0.56310000  1
  C  C382  1  0.75550000  0.18010000  0.04680000  1
  C  C383  1  0.75880000  0.46360000  0.32520000  1
  C  C384  1  0.76010000  0.03660000  0.28910000  1
  C  C385  1  0.76190000  0.96780000  0.59530000  1
  C  C386  1  0.76510000  0.20960000  0.80910000  1
  C  C387  1  0.77030000  0.98140000  0.82770000  1
  C  C388  1  0.77770000  0.97820000  0.31550000  1
  C  C389  1  0.77820000  0.20300000  0.07780000  1
  C  C390  1  0.77850000  0.75760000  0.22860000  1
  C  C391  1  0.79370000  0.09390000  0.20550000  1
  C  C392  1  0.79640000  0.83160000  0.55950000  1
  C  C393  1  0.79840000  0.56090000  0.27910000  1
  C  C394  1  0.80650000  0.23900000  0.78400000  1
  C  C395  1  0.80900000  0.03710000  0.22850000  1
  C  C396  1  0.81280000  0.77850000  0.52340000  1
  C  C397  1  0.81300000  0.61030000  0.27350000  1
  C  C398  1  0.83070000  0.98460000  0.71950000  1
  C  C399  1  0.83140000  0.44810000  0.28590000  1
  C  C400  1  0.83680000  0.94590000  0.82600000  1
  C  C401  1  0.84410000  0.12950000  0.71520000  1
  C  C402  1  0.84940000  0.92950000  0.29540000  1
  C  C403  1  0.85120000  0.49830000  0.27510000  1
  C  C404  1  0.86380000  0.33730000  0.26520000  1
  C  C405  1  0.86420000  0.87600000  0.32160000  1
  C  C406  1  0.86860000  0.21360000  0.72260000  1
  C  C407  1  0.87390000  0.59300000  0.47600000  1
  C  C408  1  0.88440000  0.38340000  0.25630000  1
  C  C409  1  0.88660000  0.15750000  0.68840000  1
  C  C410  1  0.89110000  0.32190000  0.10130000  1
  C  C411  1  0.89350000  0.17720000  0.29420000  1
  C  C412  1  0.89460000  0.30260000  0.72210000  1
  C  C413  1  0.89890000  0.94750000  0.71510000  1
  C  C414  1  0.90260000  0.92950000  0.76950000  1
  C  C415  1  0.90800000  0.56110000  0.51070000  1
  C  C416  1  0.91580000  0.24260000  0.69410000  1
  C  C417  1  0.91820000  0.48770000  0.26290000  1
  C  C418  1  0.92120000  0.32840000  0.03850000  1
  C  C419  1  0.92750000  0.21490000  0.06930000  1
  C  C420  1  0.93150000  0.53830000  0.25760000  1
  C  C421  1  0.93290000  0.77230000  0.18910000  1
  C  C422  1  0.94140000  0.32660000  0.69680000  1
  C  C423  1  0.94860000  0.11640000  0.19320000  1
  C  C424  1  0.95220000  0.33770000  0.90060000  1
  C  C425  1  0.95440000  0.27710000  0.98920000  1
  C  C426  1  0.95600000  0.77340000  0.12530000  1
  C  C427  1  0.95770000  0.22020000  0.00610000  1
  C  C428  1  0.96240000  0.15060000  0.28810000  1
  C  C429  1  0.97010000  0.76620000  0.38680000  1
  C  C430  1  0.97390000  0.89570000  0.76680000  1
  C  C431  1  0.97610000  0.33830000  0.83730000  1
  C  C432  1  0.97750000  0.49070000  0.58490000  1
  C  C433  1  0.98200000  0.51730000  0.48130000  1
  C  C434  1  0.98290000  0.91090000  0.81440000  1
  C  C435  1  0.98370000  0.21000000  0.63900000  1
  C  C436  1  0.98430000  0.28140000  0.92100000  1
  C  C437  1  0.98880000  0.54210000  0.38190000  1
  N  N438  1  0.00800000  0.29250000  0.64340000  1
  N  N439  1  0.03180000  0.28220000  0.79350000  1
  N  N440  1  0.08450000  0.41800000  0.58800000  1
  N  N441  1  0.10510000  0.73420000  0.88480000  1
  N  N442  1  0.11190000  0.84170000  0.75270000  1
  N  N443  1  0.12090000  0.40120000  0.73700000  1
  N  N444  1  0.19100000  0.13080000  0.63070000  1
  N  N445  1  0.20830000  0.64430000  0.69660000  1
  N  N446  1  0.21570000  0.84430000  0.22500000  1
  N  N447  1  0.23160000  0.99900000  0.22430000  1
  N  N448  1  0.23580000  0.21750000  0.49210000  1
  N  N449  1  0.25060000  0.20830000  0.71290000  1
  N  N450  1  0.26610000  0.73610000  0.88720000  1
  N  N451  1  0.26970000  0.85020000  0.75800000  1
  N  N452  1  0.29560000  0.30240000  0.56850000  1
  N  N453  1  0.31040000  0.77980000  0.32550000  1
  N  N454  1  0.31890000  0.57260000  0.79220000  1
  N  N455  1  0.32450000  0.93660000  0.32460000  1
  N  N456  1  0.32580000  0.73070000  0.60450000  1
  N  N457  1  0.37040000  0.84790000  0.05810000  1
  N  N458  1  0.43810000  0.65520000  0.69180000  1
  N  N459  1  0.44910000  0.69070000  0.13430000  1
  N  N460  1  0.46680000  0.90890000  0.11730000  1
  N  N461  1  0.48810000  0.23240000  0.78540000  1
  N  N462  1  0.51190000  0.76760000  0.21460000  1
  N  N463  1  0.53320000  0.09110000  0.88270000  1
  N  N464  1  0.55090000  0.30930000  0.86570000  1
  N  N465  1  0.56190000  0.34480000  0.30820000  1
  N  N466  1  0.62960000  0.15210000  0.94190000  1
  N  N467  1  0.67420000  0.26930000  0.39550000  1
  N  N468  1  0.67550000  0.06340000  0.67540000  1
  N  N469  1  0.68110000  0.42740000  0.20780000  1
  N  N470  1  0.68960000  0.22020000  0.67450000  1
  N  N471  1  0.70440000  0.69760000  0.43150000  1
  N  N472  1  0.73030000  0.14980000  0.24200000  1
  N  N473  1  0.73390000  0.26390000  0.11280000  1
  N  N474  1  0.74940000  0.79170000  0.28710000  1
  N  N475  1  0.76420000  0.78250000  0.50790000  1
  N  N476  1  0.76840000  0.00100000  0.77570000  1
  N  N477  1  0.78430000  0.15570000  0.77500000  1
  N  N478  1  0.79170000  0.35570000  0.30340000  1
  N  N479  1  0.80900000  0.86920000  0.36930000  1
  N  N480  1  0.87910000  0.59880000  0.26300000  1
  N  N481  1  0.88810000  0.15830000  0.24730000  1
  N  N482  1  0.89490000  0.26580000  0.11520000  1
  N  N483  1  0.91550000  0.58200000  0.41200000  1
  N  N484  1  0.96820000  0.71780000  0.20650000  1
  N  N485  1  0.99200000  0.70750000  0.35660000  1
  O  O486  1  0.05070000  0.28030000  0.73210000  1
  O  O487  1  0.05400000  0.31480000  0.62020000  1
  O  O488  1  0.10990000  0.35250000  0.73870000  1
  O  O489  1  0.11620000  0.38930000  0.62190000  1
  O  O490  1  0.13470000  0.73980000  0.82460000  1
  O  O491  1  0.17530000  0.18360000  0.60660000  1
  O  O492  1  0.17870000  0.81890000  0.74460000  1
  O  O493  1  0.20590000  0.20890000  0.69560000  1
  O  O494  1  0.21780000  0.26660000  0.53070000  1
  O  O495  1  0.22830000  0.68820000  0.68930000  1
  O  O496  1  0.24170000  0.71460000  0.86050000  1
  O  O497  1  0.25150000  0.29120000  0.62040000  1
  O  O498  1  0.25550000  0.87210000  0.20050000  1
  O  O499  1  0.27320000  0.61560000  0.77540000  1
  O  O500  1  0.28250000  0.79600000  0.77960000  1
  O  O501  1  0.29690000  0.96080000  0.22080000  1
  O  O502  1  0.31140000  0.79060000  0.27100000  1
  O  O503  1  0.33490000  0.72350000  0.65500000  1
  O  O504  1  0.34260000  0.88000000  0.29790000  1
  O  O505  1  0.38060000  0.65270000  0.73810000  1
  O  O506  1  0.38550000  0.86880000  0.09540000  1
  O  O507  1  0.40530000  0.74970000  0.13040000  1
  O  O508  1  0.45440000  0.87410000  0.16130000  1
  O  O509  1  0.46650000  0.76060000  0.20340000  1
  O  O510  1  0.53350000  0.23940000  0.79660000  1
  O  O511  1  0.54560000  0.12590000  0.83870000  1
  O  O512  1  0.59470000  0.25030000  0.86960000  1
  O  O513  1  0.61450000  0.13120000  0.90460000  1
  O  O514  1  0.61940000  0.34730000  0.26190000  1
  O  O515  1  0.65740000  0.12000000  0.70210000  1
  O  O516  1  0.66510000  0.27650000  0.34500000  1
  O  O517  1  0.68860000  0.20940000  0.72900000  1
  O  O518  1  0.70310000  0.03920000  0.77920000  1
  O  O519  1  0.71750000  0.20400000  0.22040000  1
  O  O520  1  0.72680000  0.38440000  0.22460000  1
  O  O521  1  0.74450000  0.12790000  0.79950000  1
  O  O522  1  0.74850000  0.70880000  0.37960000  1
  O  O523  1  0.75830000  0.28540000  0.13950000  1
  O  O524  1  0.77170000  0.31180000  0.31070000  1
  O  O525  1  0.78220000  0.73340000  0.46930000  1
  O  O526  1  0.79410000  0.79110000  0.30440000  1
  O  O527  1  0.82130000  0.18110000  0.25540000  1
  O  O528  1  0.82470000  0.81640000  0.39340000  1
  O  O529  1  0.86530000  0.26020000  0.17540000  1
  O  O530  1  0.88380000  0.61070000  0.37810000  1
  O  O531  1  0.89010000  0.64750000  0.26130000  1
  O  O532  1  0.94600000  0.68520000  0.37980000  1
  O  O533  1  0.94930000  0.71970000  0.26790000  1
