# generated using pymatgen
data_EuH12(C7O2)3
_symmetry_space_group_name_H-M   'P 1'
_cell_length_a   8.65500000
_cell_length_b   14.10500000
_cell_length_c   15.10567591
_cell_angle_alpha   115.14386485
_cell_angle_beta   106.64796293
_cell_angle_gamma   90.00000000
_symmetry_Int_Tables_number   1
_chemical_formula_structural   EuH12(C7O2)3
_chemical_formula_sum   'Eu2 H24 C42 O12'
_cell_volume   1583.53911821
_cell_formula_units_Z   2
loop_
 _symmetry_equiv_pos_site_id
 _symmetry_equiv_pos_as_xyz
  1  'x, y, z'
loop_
 _atom_site_type_symbol
 _atom_site_label
 _atom_site_symmetry_multiplicity
 _atom_site_fract_x
 _atom_site_fract_y
 _atom_site_fract_z
 _atom_site_occupancy
  Eu  Eu0  1  0.95953000  0.99449000  0.45446000  1
  Eu  Eu1  1  0.50507000  0.00551000  0.54554000  1
  H  H2  1  0.56750000  0.60510000  0.52000000  1
  H  H3  1  0.58130000  0.76660000  0.51480000  1
  H  H4  1  0.39640000  0.71600000  0.22800000  1
  H  H5  1  0.33230000  0.56800000  0.06680000  1
  H  H6  1  0.26550000  0.43200000  0.93320000  1
  H  H7  1  0.16840000  0.28400000  0.77200000  1
  H  H8  1  0.67500000  0.46890000  0.25360000  1
  H  H9  1  0.96440000  0.71950000  0.52400000  1
  H  H10  1  0.78060000  0.19840000  0.33540000  1
  H  H11  1  0.97720000  0.55920000  0.53180000  1
  H  H12  1  0.76010000  0.35360000  0.31040000  1
  H  H13  1  0.72140000  0.63740000  0.26400000  1
  H  H14  1  0.04750000  0.39490000  0.48000000  1
  H  H15  1  0.06650000  0.23340000  0.48520000  1
  H  H16  1  0.42140000  0.53110000  0.74640000  1
  H  H17  1  0.45740000  0.36260000  0.73600000  1
  H  H18  1  0.94090000  0.71540000  0.21800000  1
  H  H19  1  0.44970000  0.64640000  0.68960000  1
  H  H20  1  0.44520000  0.80160000  0.66460000  1
  H  H21  1  0.85870000  0.58060000  0.05280000  1
  H  H22  1  0.80590000  0.41940000  0.94720000  1
  H  H23  1  0.72290000  0.28460000  0.78200000  1
  H  H24  1  0.44040000  0.28050000  0.47600000  1
  H  H25  1  0.44540000  0.44080000  0.46820000  1
  C  C26  1  0.83300000  0.31130000  0.81420000  1
  C  C27  1  0.07920000  0.54910000  0.04640000  1
  C  C28  1  0.51140000  0.29720000  0.44680000  1
  C  C29  1  0.51240000  0.39260000  0.44080000  1
  C  C30  1  0.03280000  0.45090000  0.95360000  1
  C  C31  1  0.28760000  0.68740000  0.19220000  1
  C  C32  1  0.59330000  0.61030000  0.46640000  1
  C  C33  1  0.60710000  0.70770000  0.46540000  1
  C  C34  1  0.25210000  0.59620000  0.09620000  1
  C  C35  1  0.94010000  0.26420000  0.76460000  1
  C  C36  1  0.62520000  0.12760000  0.42540000  1
  C  C37  1  0.61220000  0.22800000  0.41060000  1
  C  C38  1  0.61300000  0.41600000  0.39340000  1
  C  C39  1  0.88900000  0.16640000  0.66720000  1
  C  C40  1  0.61750000  0.52160000  0.38900000  1
  C  C41  1  0.15590000  0.40380000  0.90380000  1
  C  C42  1  0.65920000  0.71720000  0.39060000  1
  C  C43  1  0.09540000  0.31260000  0.80780000  1
  C  C44  1  0.71040000  0.82690000  0.40160000  1
  C  C45  1  0.71160000  0.24610000  0.36040000  1
  C  C46  1  0.70270000  0.34180000  0.34900000  1
  C  C47  1  0.66220000  0.52880000  0.30800000  1
  C  C48  1  0.68580000  0.62980000  0.31360000  1
  C  C49  1  0.06460000  0.70280000  0.55320000  1
  C  C50  1  0.07160000  0.60740000  0.55920000  1
  C  C51  1  0.12690000  0.38970000  0.53360000  1
  C  C52  1  0.14170000  0.29230000  0.53460000  1
  C  C53  1  0.20160000  0.77200000  0.58940000  1
  C  C54  1  0.21960000  0.58400000  0.60660000  1
  C  C55  1  0.22850000  0.47840000  0.61100000  1
  C  C56  1  0.19980000  0.87240000  0.57460000  1
  C  C57  1  0.26860000  0.28280000  0.60940000  1
  C  C58  1  0.35420000  0.47120000  0.69200000  1
  C  C59  1  0.37220000  0.37020000  0.68640000  1
  C  C60  1  0.35370000  0.65820000  0.65100000  1
  C  C61  1  0.30880000  0.17310000  0.59840000  1
  C  C62  1  0.35120000  0.75390000  0.63960000  1
  C  C63  1  0.01880000  0.68870000  0.18580000  1
  C  C64  1  0.96920000  0.60220000  0.08880000  1
  C  C65  1  0.22180000  0.83360000  0.33280000  1
  C  C66  1  0.17550000  0.73580000  0.23540000  1
  C  C67  1  0.88040000  0.39780000  0.91120000  1
  O  O68  1  0.50660000  0.09810000  0.44620000  1
  O  O69  1  0.74460000  0.12320000  0.63840000  1
  O  O70  1  0.71030000  0.90600000  0.48080000  1
  O  O71  1  0.74570000  0.08220000  0.41700000  1
  O  O72  1  0.98960000  0.12840000  0.62200000  1
  O  O73  1  0.77070000  0.83090000  0.33600000  1
  O  O74  1  0.06040000  0.90190000  0.55380000  1
  O  O75  1  0.22950000  0.09400000  0.51920000  1
  O  O76  1  0.10620000  0.87680000  0.36160000  1
  O  O77  1  0.32870000  0.91780000  0.58300000  1
  O  O78  1  0.43470000  0.16910000  0.66400000  1
  O  O79  1  0.36760000  0.87160000  0.37800000  1
