# generated using pymatgen
data_Zr3H8(C3O4)4
_symmetry_space_group_name_H-M   'P 1'
_cell_length_a   12.67906098
_cell_length_b   12.67906098
_cell_length_c   12.67906098
_cell_angle_alpha   60.00000000
_cell_angle_beta   60.00000000
_cell_angle_gamma   60.00000000
_symmetry_Int_Tables_number   1
_chemical_formula_structural   Zr3H8(C3O4)4
_chemical_formula_sum   'Zr6 H16 C24 O32'
_cell_volume   1441.27307745
_cell_formula_units_Z   2
loop_
 _symmetry_equiv_pos_site_id
 _symmetry_equiv_pos_as_xyz
  1  'x, y, z'
loop_
 _atom_site_type_symbol
 _atom_site_label
 _atom_site_symmetry_multiplicity
 _atom_site_fract_x
 _atom_site_fract_y
 _atom_site_fract_z
 _atom_site_occupancy
  C  C0  1  0.46257000  0.53591000  0.96045000  1
  C  C1  1  0.34287500  0.65428500  0.97620500  1
  C  C2  1  0.03498000  0.95828000  0.46670000  1
  C  C3  1  0.65168000  0.34064000  0.02646000  1
  C  C4  1  0.53048000  0.45752000  0.04330000  1
  C  C5  1  0.01608000  0.96888000  0.35166000  1
  C  C6  1  0.01608000  0.66338000  0.96888000  1
  C  C7  1  0.65168000  0.02646000  0.98122000  1
  C  C8  1  0.65168000  0.98122000  0.34064000  1
  C  C9  1  0.98960000  0.64170000  0.33190000  1
  C  C10  1  0.03498000  0.54004000  0.95828000  1
  C  C11  1  0.53048000  0.04330000  0.96870000  1
  C  C12  1  0.46257000  0.04107000  0.53591000  1
  C  C13  1  0.03498000  0.46670000  0.54004000  1
  C  C14  1  0.53048000  0.96870000  0.45752000  1
  C  C15  1  0.97235000  0.52501000  0.45379000  1
  C  C16  1  0.97235000  0.45379000  0.04885000  1
  C  C17  1  0.46257000  0.96045000  0.04107000  1
  C  C18  1  0.34287500  0.02663500  0.65428500  1
  C  C19  1  0.01608000  0.35166000  0.66338000  1
  C  C20  1  0.98960000  0.33190000  0.03680000  1
  C  C21  1  0.34287000  0.97621000  0.02663000  1
  C  C22  1  0.98960000  0.03680000  0.64170000  1
  C  C23  1  0.97235000  0.04885000  0.52501000  1
  H  H24  1  0.10710000  0.87110000  0.50322000  1
  H  H25  1  0.49637500  0.47997500  0.12932500  1
  H  H26  1  0.90032500  0.92255500  0.88064500  1
  H  H27  1  0.90032500  0.88064500  0.29647500  1
  H  H28  1  0.49637500  0.12932500  0.89432500  1
  H  H29  1  0.10710000  0.51858000  0.87110000  1
  H  H30  1  0.49671000  0.11535000  0.51361000  1
  H  H31  1  0.10710000  0.50322000  0.51858000  1
  H  H32  1  0.49638000  0.89432000  0.47998000  1
  H  H33  1  0.90010000  0.48864000  0.47528000  1
  H  H34  1  0.90010000  0.47528000  0.13598000  1
  H  H35  1  0.49671000  0.87433000  0.11535000  1
  H  H36  1  0.29646000  0.90118000  0.90118000  1
  H  H37  1  0.90033000  0.29647000  0.92255000  1
  H  H38  1  0.90010000  0.13598000  0.48864000  1
  H  H39  1  0.49671000  0.51361000  0.87433000  1
  O  O40  1  0.92042000  0.06290000  0.31120000  1
  O  O41  1  0.29474000  0.68822000  0.07776000  1
  O  O42  1  0.70093000  0.27999000  0.11873000  1
  O  O43  1  0.10035000  0.87945000  0.29911000  1
  O  O44  1  0.93242000  0.94956000  0.91682000  1
  O  O45  1  0.06798000  0.79746000  0.04952000  1
  O  O46  1  0.79729000  0.06757000  0.06757000  1
  O  O47  1  0.93242000  0.91682000  0.20120000  1
  O  O48  1  0.10035000  0.72109000  0.87945000  1
  O  O49  1  0.70092500  0.11873500  0.90035500  1
  O  O50  1  0.70100000  0.06738000  0.30742000  1
  O  O51  1  0.08420000  0.68334000  0.29068000  1
  O  O52  1  0.92042000  0.70548000  0.06290000  1
  O  O53  1  0.70100000  0.92420000  0.06738000  1
  O  O54  1  0.70093000  0.90035000  0.27999000  1
  O  O55  1  0.90310000  0.69660000  0.27626000  1
  O  O56  1  0.29550500  0.10491500  0.71728500  1
  O  O57  1  0.10035000  0.29911000  0.72109000  1
  O  O58  1  0.08420000  0.29068000  0.94178000  1
  O  O59  1  0.29474000  0.07776000  0.93928000  1
  O  O60  1  0.29474000  0.93928000  0.68822000  1
  O  O61  1  0.92042000  0.31120000  0.70548000  1
  O  O62  1  0.90310000  0.27626000  0.12404000  1
  O  O63  1  0.29550500  0.88229500  0.10491500  1
  O  O64  1  0.06798000  0.08504000  0.79746000  1
  O  O65  1  0.20103000  0.93299000  0.93299000  1
  O  O66  1  0.93242000  0.20120000  0.94956000  1
  O  O67  1  0.06798000  0.04952000  0.08504000  1
  O  O68  1  0.90310000  0.12404000  0.69660000  1
  O  O69  1  0.08420000  0.94178000  0.68334000  1
  O  O70  1  0.29550500  0.71728500  0.88229500  1
  O  O71  1  0.70100000  0.30742000  0.92420000  1
  Zr  Zr72  1  0.86715000  0.11589000  0.14941000  1
  Zr  Zr73  1  0.13274000  0.84946000  0.13236000  1
  Zr  Zr74  1  0.86715000  0.86755000  0.11589000  1
  Zr  Zr75  1  0.13274000  0.13236000  0.88544000  1
  Zr  Zr76  1  0.13274000  0.88544000  0.84946000  1
  Zr  Zr77  1  0.86715000  0.14941000  0.86755000  1
