# generated using pymatgen
data_Zn3H38C60(N3O7)2
_symmetry_space_group_name_H-M   'P 1'
_cell_length_a   15.03320000
_cell_length_b   16.17906686
_cell_length_c   16.58990000
_cell_angle_alpha   116.19821682
_cell_angle_beta   90.00000000
_cell_angle_gamma   117.68356011
_symmetry_Int_Tables_number   1
_chemical_formula_structural   Zn3H38C60(N3O7)2
_chemical_formula_sum   'Zn6 H76 C120 N12 O28'
_cell_volume   3097.42217182
_cell_formula_units_Z   2
loop_
 _symmetry_equiv_pos_site_id
 _symmetry_equiv_pos_as_xyz
  1  'x, y, z'
loop_
 _atom_site_type_symbol
 _atom_site_label
 _atom_site_symmetry_multiplicity
 _atom_site_fract_x
 _atom_site_fract_y
 _atom_site_fract_z
 _atom_site_occupancy
  C  C0  1  0.50750000  0.96940000  0.87760000  1
  C  C1  1  0.46190000  0.96940000  0.37760000  1
  C  C2  1  0.50870000  0.96420000  0.95870000  1
  C  C3  1  0.45550000  0.96420000  0.45870000  1
  C  C4  1  0.52340000  0.90000000  0.80200000  1
  C  C5  1  0.37660000  0.90000000  0.30200000  1
  C  C6  1  0.66670000  0.89380000  0.32710000  1
  C  C7  1  0.22710000  0.89380000  0.82710000  1
  C  C8  1  0.52590000  0.88620000  0.95690000  1
  C  C9  1  0.36030000  0.88620000  0.45690000  1
  C  C10  1  0.88100000  0.86440000  0.19010000  1
  C  C11  1  0.98340000  0.86440000  0.69010000  1
  C  C12  1  0.54180000  0.81900000  0.87720000  1
  C  C13  1  0.27720000  0.81900000  0.37720000  1
  C  C14  1  0.59240000  0.81800000  0.43080000  1
  C  C15  1  0.22560000  0.81800000  0.93080000  1
  C  C16  1  0.75100000  0.81240000  0.07590000  1
  C  C17  1  0.06140000  0.81240000  0.57590000  1
  C  C18  1  0.58880000  0.80660000  0.34320000  1
  C  C19  1  0.21780000  0.80660000  0.84320000  1
  C  C20  1  0.88320000  0.77540000  0.63380000  1
  C  C21  1  0.89220000  0.77540000  0.13380000  1
  C  C22  1  0.51560000  0.75800000  0.54450000  1
  C  C23  1  0.24240000  0.75800000  0.04450000  1
  C  C24  1  0.51790000  0.73840000  0.44660000  1
  C  C25  1  0.22050000  0.73840000  0.94660000  1
  C  C26  1  0.75420000  0.72180000  0.01530000  1
  C  C27  1  0.96760000  0.72180000  0.51530000  1
  C  C28  1  0.51460000  0.71100000  0.26950000  1
  C  C29  1  0.19640000  0.71100000  0.76950000  1
  C  C30  1  0.82640000  0.70160000  0.04620000  1
  C  C31  1  0.87520000  0.70160000  0.54620000  1
  C  C32  1  0.84530000  0.69180000  0.79910000  1
  C  C33  1  0.84650000  0.69180000  0.29910000  1
  C  C34  1  0.74380000  0.66180000  0.29470000  1
  C  C35  1  0.91800000  0.66180000  0.79470000  1
  C  C36  1  0.66480000  0.64800000  0.74320000  1
  C  C37  1  0.98320000  0.64800000  0.24320000  1
  C  C38  1  0.44480000  0.64260000  0.37070000  1
  C  C39  1  0.19780000  0.64260000  0.87070000  1
  C  C40  1  0.44370000  0.62700000  0.28220000  1
  C  C41  1  0.18330000  0.62700000  0.78220000  1
  C  C42  1  0.74510000  0.61700000  0.73990000  1
  C  C43  1  0.87190000  0.61700000  0.23990000  1
  C  C44  1  0.68240000  0.60800000  0.47940000  1
  C  C45  1  0.92560000  0.60800000  0.97940000  1
  C  C46  1  0.77310000  0.60420000  0.48540000  1
  C  C47  1  0.83110000  0.60420000  0.98540000  1
  C  C48  1  0.33090000  0.58540000  0.61850000  1
  C  C49  1  0.25450000  0.58540000  0.11850000  1
  C  C50  1  0.66220000  0.55220000  0.23010000  1
  C  C51  1  0.89000000  0.55220000  0.73010000  1
  C  C52  1  0.31130000  0.51660000  0.82820000  1
  C  C53  1  0.20530000  0.51660000  0.32820000  1
  C  C54  1  0.58920000  0.51460000  0.42450000  1
  C  C55  1  0.92540000  0.51460000  0.92450000  1
  C  C56  1  0.72150000  0.51360000  0.67600000  1
  C  C57  1  0.79210000  0.51360000  0.17600000  1
  C  C58  1  0.74060000  0.50500000  0.93460000  1
  C  C59  1  0.76440000  0.50500000  0.43460000  1
  C  C60  1  0.25940000  0.49500000  0.06540000  1
  C  C61  1  0.23560000  0.49500000  0.56540000  1
  C  C62  1  0.27850000  0.48640000  0.32400000  1
  C  C63  1  0.20790000  0.48640000  0.82400000  1
  C  C64  1  0.41080000  0.48540000  0.57550000  1
  C  C65  1  0.07460000  0.48540000  0.07550000  1
  C  C66  1  0.68870000  0.48340000  0.17180000  1
  C  C67  1  0.79470000  0.48340000  0.67180000  1
  C  C68  1  0.33780000  0.44780000  0.76990000  1
  C  C69  1  0.11000000  0.44780000  0.26990000  1
  C  C70  1  0.66910000  0.41460000  0.38150000  1
  C  C71  1  0.74550000  0.41460000  0.88150000  1
  C  C72  1  0.22690000  0.39580000  0.51460000  1
  C  C73  1  0.16890000  0.39580000  0.01460000  1
  C  C74  1  0.31760000  0.39200000  0.52060000  1
  C  C75  1  0.07440000  0.39200000  0.02060000  1
  C  C76  1  0.25490000  0.38300000  0.26010000  1
  C  C77  1  0.12810000  0.38300000  0.76010000  1
  C  C78  1  0.55630000  0.37300000  0.71780000  1
  C  C79  1  0.81670000  0.37300000  0.21780000  1
  C  C80  1  0.55520000  0.35740000  0.62930000  1
  C  C81  1  0.80220000  0.35740000  0.12930000  1
  C  C82  1  0.33520000  0.35200000  0.25680000  1
  C  C83  1  0.01680000  0.35200000  0.75680000  1
  C  C84  1  0.25620000  0.33820000  0.70530000  1
  C  C85  1  0.08200000  0.33820000  0.20530000  1
  C  C86  1  0.15470000  0.30820000  0.20090000  1
  C  C87  1  0.15350000  0.30820000  0.70090000  1
  C  C88  1  0.17360000  0.29840000  0.95380000  1
  C  C89  1  0.12480000  0.29840000  0.45380000  1
  C  C90  1  0.48540000  0.28900000  0.73050000  1
  C  C91  1  0.80360000  0.28900000  0.23050000  1
  C  C92  1  0.24580000  0.27820000  0.98470000  1
  C  C93  1  0.03240000  0.27820000  0.48470000  1
  C  C94  1  0.48210000  0.26160000  0.55340000  1
  C  C95  1  0.77950000  0.26160000  0.05340000  1
  C  C96  1  0.48440000  0.24200000  0.45550000  1
  C  C97  1  0.75760000  0.24200000  0.95550000  1
  C  C98  1  0.11680000  0.22460000  0.36620000  1
  C  C99  1  0.10780000  0.22460000  0.86620000  1
  C  C100  1  0.41120000  0.19340000  0.65680000  1
  C  C101  1  0.78220000  0.19340000  0.15680000  1
  C  C102  1  0.24900000  0.18760000  0.92410000  1
  C  C103  1  0.93860000  0.18760000  0.42410000  1
  C  C104  1  0.40760000  0.18200000  0.56920000  1
  C  C105  1  0.77440000  0.18200000  0.06920000  1
  C  C106  1  0.45820000  0.18100000  0.12280000  1
  C  C107  1  0.72280000  0.18100000  0.62280000  1
  C  C108  1  0.11900000  0.13560000  0.80990000  1
  C  C109  1  0.01660000  0.13560000  0.30990000  1
  C  C110  1  0.47410000  0.11380000  0.04310000  1
  C  C111  1  0.63970000  0.11380000  0.54310000  1
  C  C112  1  0.33330000  0.10620000  0.67290000  1
  C  C113  1  0.77290000  0.10620000  0.17290000  1
  C  C114  1  0.47660000  0.10000000  0.19800000  1
  C  C115  1  0.62340000  0.10000000  0.69800000  1
  C  C116  1  0.49130000  0.03580000  0.04130000  1
  C  C117  1  0.54450000  0.03580000  0.54130000  1
  C  C118  1  0.49250000  0.03060000  0.12240000  1
  C  C119  1  0.53810000  0.03060000  0.62240000  1
  H  H120  1  0.50390000  0.98040000  0.12580000  1
  H  H121  1  0.47650000  0.98040000  0.62580000  1
  H  H122  1  0.92440000  0.91340000  0.25000000  1
  H  H123  1  0.98900000  0.91340000  0.75000000  1
  H  H124  1  0.52220000  0.90520000  0.74840000  1
  H  H125  1  0.38300000  0.90520000  0.24840000  1
  H  H126  1  0.64600000  0.88060000  0.48070000  1
  H  H127  1  0.23460000  0.88060000  0.98070000  1
  H  H128  1  0.52690000  0.87860000  0.00920000  1
  H  H129  1  0.35170000  0.87860000  0.50920000  1
  H  H130  1  0.70430000  0.82580000  0.05540000  1
  H  H131  1  0.12150000  0.82580000  0.55540000  1
  H  H132  1  0.55380000  0.76800000  0.87840000  1
  H  H133  1  0.21420000  0.76800000  0.37840000  1
  H  H134  1  0.82430000  0.76720000  0.65570000  1
  H  H135  1  0.94290000  0.76720000  0.15570000  1
  H  H136  1  0.86280000  0.76180000  0.84150000  1
  H  H137  1  0.89900000  0.76180000  0.34150000  1
  H  H138  1  0.72680000  0.71200000  0.33310000  1
  H  H139  1  0.98520000  0.71200000  0.83310000  1
  H  H140  1  0.51140000  0.70180000  0.20990000  1
  H  H141  1  0.19040000  0.70180000  0.70990000  1
  H  H142  1  0.70990000  0.67500000  0.95560000  1
  H  H143  1  0.96510000  0.67500000  0.45560000  1
  H  H144  1  0.68520000  0.67340000  0.51230000  1
  H  H145  1  0.98820000  0.67340000  0.01230000  1
  H  H146  1  0.33510000  0.65140000  0.65180000  1
  H  H147  1  0.31630000  0.65140000  0.15180000  1
  H  H148  1  0.36320000  0.58600000  0.87240000  1
  H  H149  1  0.22280000  0.58600000  0.37240000  1
  H  H150  1  0.39590000  0.56080000  0.23120000  1
  H  H151  1  0.16490000  0.56080000  0.73120000  1
  H  H152  1  0.59270000  0.52980000  0.22920000  1
  H  H153  1  0.93710000  0.52980000  0.72920000  1
  H  H154  1  0.52960000  0.51840000  0.42060000  1
  H  H155  1  0.98880000  0.51840000  0.92060000  1
  H  H156  1  0.32360000  0.50040000  0.06360000  1
  H  H157  1  0.17680000  0.50040000  0.56360000  1
  H  H158  1  0.67640000  0.49960000  0.93640000  1
  H  H159  1  0.82320000  0.49960000  0.43640000  1
  H  H160  1  0.47040000  0.48160000  0.57940000  1
  H  H161  1  0.01120000  0.48160000  0.07940000  1
  H  H162  1  0.40730000  0.47020000  0.77080000  1
  H  H163  1  0.06290000  0.47020000  0.27080000  1
  H  H164  1  0.60410000  0.43920000  0.76880000  1
  H  H165  1  0.83510000  0.43920000  0.26880000  1
  H  H166  1  0.63680000  0.41400000  0.12760000  1
  H  H167  1  0.77720000  0.41400000  0.62760000  1
  H  H168  1  0.66490000  0.34860000  0.34820000  1
  H  H169  1  0.68370000  0.34860000  0.84820000  1
  H  H170  1  0.31480000  0.32660000  0.48770000  1
  H  H171  1  0.01180000  0.32660000  0.98770000  1
  H  H172  1  0.29010000  0.32500000  0.04440000  1
  H  H173  1  0.03490000  0.32500000  0.54440000  1
  H  H174  1  0.48860000  0.29820000  0.79010000  1
  H  H175  1  0.80960000  0.29820000  0.29010000  1
  H  H176  1  0.27320000  0.28800000  0.66690000  1
  H  H177  1  0.01480000  0.28800000  0.16690000  1
  H  H178  1  0.13720000  0.23820000  0.15850000  1
  H  H179  1  0.10100000  0.23820000  0.65850000  1
  H  H180  1  0.17570000  0.23280000  0.34430000  1
  H  H181  1  0.05710000  0.23280000  0.84430000  1
  H  H182  1  0.44620000  0.23200000  0.12160000  1
  H  H183  1  0.78580000  0.23200000  0.62160000  1
  H  H184  1  0.29570000  0.17420000  0.94460000  1
  H  H185  1  0.87850000  0.17420000  0.44460000  1
  H  H186  1  0.47310000  0.12140000  0.99080000  1
  H  H187  1  0.64830000  0.12140000  0.49080000  1
  H  H188  1  0.35400000  0.11940000  0.51930000  1
  H  H189  1  0.76540000  0.11940000  0.01930000  1
  H  H190  1  0.47780000  0.09480000  0.25160000  1
  H  H191  1  0.61700000  0.09480000  0.75160000  1
  H  H192  1  0.07560000  0.08660000  0.75000000  1
  H  H193  1  0.01100000  0.08660000  0.25000000  1
  H  H194  1  0.49610000  0.01960000  0.87420000  1
  H  H195  1  0.52350000  0.01960000  0.37420000  1
  N  N196  1  0.81182000  0.88084000  0.16190000  1
  N  N197  1  0.06902000  0.88084000  0.66190000  1
  N  N198  1  0.54030000  0.82500000  0.80080000  1
  N  N199  1  0.28470000  0.82500000  0.30080000  1
  N  N200  1  0.41924000  0.58268000  0.62420000  1
  N  N201  1  0.16344000  0.58268000  0.12420000  1
  N  N202  1  0.58076000  0.41732000  0.37580000  1
  N  N203  1  0.83656000  0.41732000  0.87580000  1
  N  N204  1  0.45970000  0.17500000  0.19920000  1
  N  N205  1  0.71530000  0.17500000  0.69920000  1
  N  N206  1  0.18818000  0.11916000  0.83810000  1
  N  N207  1  0.93098000  0.11916000  0.33810000  1
  O  O208  1  0.75370000  0.96340000  0.38430000  1
  O  O209  1  0.20970000  0.96340000  0.88430000  1
  O  O210  1  0.64730000  0.89440000  0.25530000  1
  O  O211  1  0.24710000  0.89440000  0.75530000  1
  O  O212  1  0.44610000  0.76900000  0.57810000  1
  O  O213  1  0.32290000  0.76900000  0.07810000  1
  O  O214  1  0.58810000  0.76040000  0.58800000  1
  O  O215  1  0.17230000  0.76040000  0.08800000  1
  O  O216  1  0.66990000  0.69740000  0.70040000  1
  O  O217  1  0.02750000  0.69740000  0.20040000  1
  O  O218  1  0.59800000  0.62580000  0.78620000  1
  O  O219  1  0.02780000  0.62580000  0.28620000  1
  O  O220  1  0.37733000  0.56066000  0.38770000  1
  O  O221  1  0.18333000  0.56066000  0.88770000  1
  O  O222  1  0.62267000  0.43934000  0.61230000  1
  O  O223  1  0.81667000  0.43934000  0.11230000  1
  O  O224  1  0.40200000  0.37420000  0.21380000  1
  O  O225  1  0.97220000  0.37420000  0.71380000  1
  O  O226  1  0.33010000  0.30260000  0.29960000  1
  O  O227  1  0.97250000  0.30260000  0.79960000  1
  O  O228  1  0.41190000  0.23960000  0.41200000  1
  O  O229  1  0.82770000  0.23960000  0.91200000  1
  O  O230  1  0.55390000  0.23100000  0.42190000  1
  O  O231  1  0.67710000  0.23100000  0.92190000  1
  O  O232  1  0.35270000  0.10560000  0.74470000  1
  O  O233  1  0.75290000  0.10560000  0.24470000  1
  O  O234  1  0.24630000  0.03660000  0.61570000  1
  O  O235  1  0.79030000  0.03660000  0.11570000  1
  Zn  Zn236  1  0.78606000  0.00000000  0.25000000  1
  Zn  Zn237  1  0.21394000  0.00000000  0.75000000  1
  Zn  Zn238  1  0.55890000  0.72248000  0.68724000  1
  Zn  Zn239  1  0.16358000  0.72248000  0.18724000  1
  Zn  Zn240  1  0.44110000  0.27752000  0.31276000  1
  Zn  Zn241  1  0.83642000  0.27752000  0.81276000  1
