# generated using pymatgen
data_Co3H8C14(NO5)2
_symmetry_space_group_name_H-M   'P 1'
_cell_length_a   11.15750000
_cell_length_b   11.26060000
_cell_length_c   11.42400000
_cell_angle_alpha   76.76200000
_cell_angle_beta   65.81400000
_cell_angle_gamma   80.68000000
_symmetry_Int_Tables_number   1
_chemical_formula_structural   Co3H8C14(NO5)2
_chemical_formula_sum   'Co6 H16 C28 N4 O20'
_cell_volume   1270.77257812
_cell_formula_units_Z   2
loop_
 _symmetry_equiv_pos_site_id
 _symmetry_equiv_pos_as_xyz
  1  'x, y, z'
loop_
 _atom_site_type_symbol
 _atom_site_label
 _atom_site_symmetry_multiplicity
 _atom_site_fract_x
 _atom_site_fract_y
 _atom_site_fract_z
 _atom_site_occupancy
  Co  Co0  1  0.00718000  0.64072000  0.99133000  1
  Co  Co1  1  0.02916000  0.57180000  0.71023000  1
  Co  Co2  1  0.10282000  0.39292000  0.49932000  1
  Co  Co3  1  0.89718000  0.60708000  0.50068000  1
  Co  Co4  1  0.97084000  0.42820000  0.28977000  1
  Co  Co5  1  0.99282000  0.35928000  0.00867000  1
  H  H6  1  0.03190000  0.96440000  0.13930000  1
  H  H7  1  0.12680000  0.47610000  0.07810000  1
  H  H8  1  0.13410000  0.93000000  0.50860000  1
  H  H9  1  0.14660000  0.62750000  0.46100000  1
  H  H10  1  0.17290000  0.13350000  0.41050000  1
  H  H11  1  0.34510000  0.34410000  0.59000000  1
  H  H12  1  0.42840000  0.64420000  0.50710000  1
  H  H13  1  0.45350000  0.58580000  0.86100000  1
  H  H14  1  0.54650000  0.41420000  0.13900000  1
  H  H15  1  0.57160000  0.35580000  0.49290000  1
  H  H16  1  0.65490000  0.65590000  0.41000000  1
  H  H17  1  0.82710000  0.86650000  0.58950000  1
  H  H18  1  0.85340000  0.37250000  0.53900000  1
  H  H19  1  0.86590000  0.07000000  0.49140000  1
  H  H20  1  0.87320000  0.52390000  0.92190000  1
  H  H21  1  0.96810000  0.03560000  0.86070000  1
  C  C22  1  0.00346000  0.27884000  0.77458000  1
  C  C23  1  0.00900000  0.05381000  0.76818000  1
  C  C24  1  0.01670000  0.83084000  0.75850000  1
  C  C25  1  0.03406000  0.17282000  0.70372000  1
  C  C26  1  0.04506000  0.96152000  0.69473000  1
  C  C27  1  0.10710000  0.99169000  0.56071000  1
  C  C28  1  0.12970000  0.11353000  0.50273000  1
  C  C29  1  0.26981000  0.60213000  0.75965000  1
  C  C30  1  0.28040000  0.41387000  0.22474000  1
  C  C31  1  0.37248000  0.39606000  0.29585000  1
  C  C32  1  0.38670000  0.36027000  0.49749000  1
  C  C33  1  0.41627000  0.61231000  0.69495000  1
  C  C34  1  0.47820000  0.63376000  0.55957000  1
  C  C35  1  0.49320000  0.59860000  0.76843000  1
  C  C36  1  0.50680000  0.40140000  0.23157000  1
  C  C37  1  0.52180000  0.36624000  0.44043000  1
  C  C38  1  0.58373000  0.38769000  0.30505000  1
  C  C39  1  0.61330000  0.63973000  0.50251000  1
  C  C40  1  0.62752000  0.60394000  0.70415000  1
  C  C41  1  0.71960000  0.58613000  0.77526000  1
  C  C42  1  0.73019000  0.39787000  0.24035000  1
  C  C43  1  0.87030000  0.88647000  0.49727000  1
  C  C44  1  0.89290000  0.00831000  0.43929000  1
  C  C45  1  0.95494000  0.03848000  0.30527000  1
  C  C46  1  0.96594000  0.82718000  0.29628000  1
  C  C47  1  0.98330000  0.16916000  0.24150000  1
  C  C48  1  0.99100000  0.94619000  0.23182000  1
  C  C49  1  0.99654000  0.72116000  0.22542000  1
  N  N50  1  0.09289000  0.20295000  0.57214000  1
  N  N51  1  0.31226000  0.37644000  0.42741000  1
  N  N52  1  0.68774000  0.62356000  0.57259000  1
  N  N53  1  0.90711000  0.79705000  0.42786000  1
  O  O54  1  0.02686000  0.19396000  0.11854000  1
  O  O55  1  0.03856000  0.75767000  0.68297000  1
  O  O56  1  0.03904000  0.38043000  0.70146000  1
  O  O57  1  0.04948000  0.47010000  0.09374000  1
  O  O58  1  0.04994000  0.74055000  0.10392000  1
  O  O59  1  0.08278000  0.57580000  0.51164000  1
  O  O60  1  0.15894000  0.40662000  0.30093000  1
  O  O61  1  0.20896000  0.64128000  0.86395000  1
  O  O62  1  0.22264000  0.55113000  0.70147000  1
  O  O63  1  0.32358000  0.43219000  0.10489000  1
  O  O64  1  0.67642000  0.56781000  0.89511000  1
  O  O65  1  0.77736000  0.44887000  0.29853000  1
  O  O66  1  0.79104000  0.35872000  0.13605000  1
  O  O67  1  0.84106000  0.59338000  0.69907000  1
  O  O68  1  0.91722000  0.42420000  0.48836000  1
  O  O69  1  0.95006000  0.25945000  0.89608000  1
  O  O70  1  0.95052000  0.52990000  0.90626000  1
  O  O71  1  0.96096000  0.61957000  0.29854000  1
  O  O72  1  0.96144000  0.24233000  0.31703000  1
  O  O73  1  0.97314000  0.80604000  0.88146000  1
