# generated using pymatgen
data_VH4C8O5
_symmetry_space_group_name_H-M   'P 1'
_cell_length_a   6.80940000
_cell_length_b   12.42200000
_cell_length_c   17.17330000
_cell_angle_alpha   90.00000000
_cell_angle_beta   90.00000000
_cell_angle_gamma   90.00000000
_symmetry_Int_Tables_number   1
_chemical_formula_structural   VH4C8O5
_chemical_formula_sum   'V4 H16 C32 O20'
_cell_volume   1452.62705297
_cell_formula_units_Z   4
loop_
 _symmetry_equiv_pos_site_id
 _symmetry_equiv_pos_as_xyz
  1  'x, y, z'
loop_
 _atom_site_type_symbol
 _atom_site_label
 _atom_site_symmetry_multiplicity
 _atom_site_fract_x
 _atom_site_fract_y
 _atom_site_fract_z
 _atom_site_occupancy
  V  V0  1  0.06055000  0.26567000  0.00084000  1
  V  V1  1  0.43945000  0.73433000  0.50084000  1
  V  V2  1  0.56055000  0.23433000  0.99916000  1
  V  V3  1  0.93945000  0.76567000  0.49916000  1
  H  H4  1  0.03440000  0.54210000  0.31990000  1
  H  H5  1  0.03460000  0.57580000  0.70000000  1
  H  H6  1  0.05060000  0.47640000  0.81380000  1
  H  H7  1  0.05460000  0.44430000  0.20580000  1
  H  H8  1  0.44540000  0.55570000  0.70580000  1
  H  H9  1  0.44940000  0.52360000  0.31380000  1
  H  H10  1  0.46540000  0.42420000  0.20000000  1
  H  H11  1  0.46560000  0.45790000  0.81990000  1
  H  H12  1  0.53440000  0.95790000  0.68010000  1
  H  H13  1  0.53460000  0.92420000  0.30000000  1
  H  H14  1  0.55060000  0.02360000  0.18620000  1
  H  H15  1  0.55460000  0.05570000  0.79420000  1
  H  H16  1  0.94540000  0.94430000  0.29420000  1
  H  H17  1  0.94940000  0.97640000  0.68620000  1
  H  H18  1  0.96540000  0.07580000  0.80000000  1
  H  H19  1  0.96560000  0.04210000  0.18010000  1
  C  C20  1  0.06730000  0.95970000  0.27250000  1
  C  C21  1  0.07090000  0.99260000  0.70790000  1
  C  C22  1  0.07970000  0.01850000  0.20450000  1
  C  C23  1  0.08010000  0.05220000  0.77610000  1
  C  C24  1  0.22650000  0.86140000  0.38222000  1
  C  C25  1  0.22930000  0.88700000  0.60193000  1
  C  C26  1  0.23830000  0.92360000  0.30846000  1
  C  C27  1  0.23880000  0.95740000  0.67237000  1
  C  C28  1  0.26120000  0.04260000  0.17237000  1
  C  C29  1  0.26170000  0.07640000  0.80846000  1
  C  C30  1  0.27070000  0.11300000  0.10193000  1
  C  C31  1  0.27350000  0.13860000  0.88222000  1
  C  C32  1  0.41990000  0.94780000  0.27610000  1
  C  C33  1  0.42030000  0.98150000  0.70450000  1
  C  C34  1  0.42910000  0.00740000  0.20790000  1
  C  C35  1  0.43270000  0.04030000  0.77250000  1
  C  C36  1  0.56730000  0.54030000  0.72750000  1
  C  C37  1  0.57090000  0.50740000  0.29210000  1
  C  C38  1  0.57970000  0.48150000  0.79550000  1
  C  C39  1  0.58010000  0.44780000  0.22390000  1
  C  C40  1  0.72650000  0.63860000  0.61778000  1
  C  C41  1  0.72930000  0.61300000  0.39807000  1
  C  C42  1  0.73830000  0.57640000  0.69154000  1
  C  C43  1  0.73880000  0.54260000  0.32763000  1
  C  C44  1  0.76120000  0.45740000  0.82763000  1
  C  C45  1  0.76170000  0.42360000  0.19154000  1
  C  C46  1  0.77070000  0.38700000  0.89807000  1
  C  C47  1  0.77350000  0.36140000  0.11778000  1
  C  C48  1  0.91990000  0.55220000  0.72390000  1
  C  C49  1  0.92030000  0.51850000  0.29550000  1
  C  C50  1  0.92910000  0.49260000  0.79210000  1
  C  C51  1  0.93270000  0.45970000  0.22750000  1
  O  O52  1  0.06060000  0.84460000  0.41071000  1
  O  O53  1  0.06060000  0.86720000  0.57524000  1
  O  O54  1  0.11190000  0.14830000  0.07571000  1
  O  O55  1  0.11220000  0.17110000  0.91063000  1
  O  O56  1  0.22170000  0.68315000  0.50492000  1
  O  O57  1  0.27830000  0.31685000  0.00492000  1
  O  O58  1  0.38780000  0.82890000  0.41063000  1
  O  O59  1  0.38810000  0.85170000  0.57571000  1
  O  O60  1  0.43940000  0.13280000  0.07524000  1
  O  O61  1  0.43940000  0.15540000  0.91071000  1
  O  O62  1  0.56060000  0.63280000  0.42476000  1
  O  O63  1  0.56060000  0.65540000  0.58929000  1
  O  O64  1  0.61190000  0.35170000  0.92429000  1
  O  O65  1  0.61220000  0.32890000  0.08937000  1
  O  O66  1  0.72170000  0.81685000  0.49508000  1
  O  O67  1  0.77830000  0.18315000  0.99508000  1
  O  O68  1  0.88780000  0.67110000  0.58937000  1
  O  O69  1  0.88810000  0.64830000  0.42429000  1
  O  O70  1  0.93940000  0.34460000  0.08929000  1
  O  O71  1  0.93940000  0.36720000  0.92476000  1
