# generated using pymatgen
data_AgH4(C2N3)2
_symmetry_space_group_name_H-M   'P 1'
_cell_length_a   12.77600000
_cell_length_b   12.86600000
_cell_length_c   16.80200000
_cell_angle_alpha   105.30300000
_cell_angle_beta   90.00000000
_cell_angle_gamma   90.00000000
_symmetry_Int_Tables_number   1
_chemical_formula_structural   AgH4(C2N3)2
_chemical_formula_sum   'Ag8 H32 C32 N48'
_cell_volume   2663.92071281
_cell_formula_units_Z   8
loop_
 _symmetry_equiv_pos_site_id
 _symmetry_equiv_pos_as_xyz
  1  'x, y, z'
loop_
 _atom_site_type_symbol
 _atom_site_label
 _atom_site_symmetry_multiplicity
 _atom_site_fract_x
 _atom_site_fract_y
 _atom_site_fract_z
 _atom_site_occupancy
  Ag  Ag0  1  0.34308000  0.91480000  0.09463000  1
  Ag  Ag1  1  0.61134000  0.85598000  0.97572000  1
  Ag  Ag2  1  0.11134000  0.64402000  0.52428000  1
  Ag  Ag3  1  0.84308000  0.58520000  0.40537000  1
  Ag  Ag4  1  0.15692000  0.41480000  0.59463000  1
  Ag  Ag5  1  0.88866000  0.35598000  0.47572000  1
  Ag  Ag6  1  0.38866000  0.14402000  0.02428000  1
  Ag  Ag7  1  0.65692000  0.08520000  0.90537000  1
  H  H8  1  0.69810000  0.95370000  0.37430000  1
  H  H9  1  0.78570000  0.92950000  0.72390000  1
  H  H10  1  0.18850000  0.85360000  0.24570000  1
  H  H11  1  0.74290000  0.84180000  0.14650000  1
  H  H12  1  0.46760000  0.83920000  0.25200000  1
  H  H13  1  0.23520000  0.82030000  0.68810000  1
  H  H14  1  0.20840000  0.81820000  0.91300000  1
  H  H15  1  0.47800000  0.79640000  0.79710000  1
  H  H16  1  0.97800000  0.70360000  0.70290000  1
  H  H17  1  0.70840000  0.68180000  0.58700000  1
  H  H18  1  0.73520000  0.67970000  0.81190000  1
  H  H19  1  0.96760000  0.66080000  0.24800000  1
  H  H20  1  0.24290000  0.65820000  0.35350000  1
  H  H21  1  0.68850000  0.64640000  0.25430000  1
  H  H22  1  0.28570000  0.57050000  0.77610000  1
  H  H23  1  0.19810000  0.54630000  0.12570000  1
  H  H24  1  0.80190000  0.45370000  0.87430000  1
  H  H25  1  0.71430000  0.42950000  0.22390000  1
  H  H26  1  0.31150000  0.35360000  0.74570000  1
  H  H27  1  0.75710000  0.34180000  0.64650000  1
  H  H28  1  0.03240000  0.33920000  0.75200000  1
  H  H29  1  0.26480000  0.32030000  0.18810000  1
  H  H30  1  0.29160000  0.31820000  0.41300000  1
  H  H31  1  0.02200000  0.29640000  0.29710000  1
  H  H32  1  0.52200000  0.20360000  0.20290000  1
  H  H33  1  0.79160000  0.18180000  0.08700000  1
  H  H34  1  0.76480000  0.17970000  0.31190000  1
  H  H35  1  0.53240000  0.16080000  0.74800000  1
  H  H36  1  0.25710000  0.15820000  0.85350000  1
  H  H37  1  0.81150000  0.14640000  0.75430000  1
  H  H38  1  0.21430000  0.07050000  0.27610000  1
  H  H39  1  0.30190000  0.04630000  0.62570000  1
  C  C40  1  0.76590000  0.88750000  0.75870000  1
  C  C41  1  0.70770000  0.87940000  0.36050000  1
  C  C42  1  0.67130000  0.84690000  0.15650000  1
  C  C43  1  0.51920000  0.84570000  0.21460000  1
  C  C44  1  0.27890000  0.82540000  0.90170000  1
  C  C45  1  0.42720000  0.81340000  0.83810000  1
  C  C46  1  0.20200000  0.78970000  0.20580000  1
  C  C47  1  0.23790000  0.75010000  0.69310000  1
  C  C48  1  0.73790000  0.74990000  0.80690000  1
  C  C49  1  0.70200000  0.71030000  0.29420000  1
  C  C50  1  0.92720000  0.68660000  0.66190000  1
  C  C51  1  0.77890000  0.67460000  0.59830000  1
  C  C52  1  0.01920000  0.65430000  0.28540000  1
  C  C53  1  0.17130000  0.65310000  0.34350000  1
  C  C54  1  0.20770000  0.62060000  0.13950000  1
  C  C55  1  0.26590000  0.61250000  0.74130000  1
  C  C56  1  0.73410000  0.38750000  0.25870000  1
  C  C57  1  0.79230000  0.37940000  0.86050000  1
  C  C58  1  0.82870000  0.34690000  0.65650000  1
  C  C59  1  0.98080000  0.34570000  0.71460000  1
  C  C60  1  0.22110000  0.32540000  0.40170000  1
  C  C61  1  0.07280000  0.31340000  0.33810000  1
  C  C62  1  0.29800000  0.28970000  0.70580000  1
  C  C63  1  0.26210000  0.25010000  0.19310000  1
  C  C64  1  0.76210000  0.24990000  0.30690000  1
  C  C65  1  0.79800000  0.21030000  0.79420000  1
  C  C66  1  0.57280000  0.18660000  0.16190000  1
  C  C67  1  0.72110000  0.17460000  0.09830000  1
  C  C68  1  0.48080000  0.15430000  0.78540000  1
  C  C69  1  0.32870000  0.15310000  0.84350000  1
  C  C70  1  0.29230000  0.12060000  0.63950000  1
  C  C71  1  0.23410000  0.11250000  0.24130000  1
  N  N72  1  0.71980000  0.92340000  0.83010000  1
  N  N73  1  0.34720000  0.87520000  0.95430000  1
  N  N74  1  0.60060000  0.86950000  0.10760000  1
  N  N75  1  0.50310000  0.86900000  0.14470000  1
  N  N76  1  0.44360000  0.86710000  0.91260000  1
  N  N77  1  0.70180000  0.83400000  0.85960000  1
  N  N78  1  0.62310000  0.83240000  0.22400000  1
  N  N79  1  0.75670000  0.82640000  0.40470000  1
  N  N80  1  0.67250000  0.80820000  0.29020000  1
  N  N81  1  0.32510000  0.78500000  0.82750000  1
  N  N82  1  0.25330000  0.78190000  0.13670000  1
  N  N83  1  0.78030000  0.78080000  0.74310000  1
  N  N84  1  0.28030000  0.71920000  0.75690000  1
  N  N85  1  0.75330000  0.71810000  0.36330000  1
  N  N86  1  0.82510000  0.71500000  0.67250000  1
  N  N87  1  0.17250000  0.69180000  0.20980000  1
  N  N88  1  0.25670000  0.67360000  0.09530000  1
  N  N89  1  0.12310000  0.66760000  0.27600000  1
  N  N90  1  0.20180000  0.66600000  0.64040000  1
  N  N91  1  0.94360000  0.63290000  0.58740000  1
  N  N92  1  0.00310000  0.63100000  0.35530000  1
  N  N93  1  0.10060000  0.63050000  0.39240000  1
  N  N94  1  0.84720000  0.62480000  0.54570000  1
  N  N95  1  0.21980000  0.57660000  0.66990000  1
  N  N96  1  0.78020000  0.42340000  0.33010000  1
  N  N97  1  0.15280000  0.37520000  0.45430000  1
  N  N98  1  0.89940000  0.36950000  0.60760000  1
  N  N99  1  0.99690000  0.36900000  0.64470000  1
  N  N100  1  0.05640000  0.36710000  0.41260000  1
  N  N101  1  0.79820000  0.33400000  0.35960000  1
  N  N102  1  0.87690000  0.33240000  0.72400000  1
  N  N103  1  0.74330000  0.32640000  0.90470000  1
  N  N104  1  0.82750000  0.30820000  0.79020000  1
  N  N105  1  0.17490000  0.28500000  0.32750000  1
  N  N106  1  0.24670000  0.28190000  0.63670000  1
  N  N107  1  0.71970000  0.28080000  0.24310000  1
  N  N108  1  0.21970000  0.21920000  0.25690000  1
  N  N109  1  0.74670000  0.21810000  0.86330000  1
  N  N110  1  0.67490000  0.21500000  0.17250000  1
  N  N111  1  0.32750000  0.19180000  0.70980000  1
  N  N112  1  0.24330000  0.17360000  0.59530000  1
  N  N113  1  0.37690000  0.16760000  0.77600000  1
  N  N114  1  0.29820000  0.16600000  0.14040000  1
  N  N115  1  0.55640000  0.13290000  0.08740000  1
  N  N116  1  0.49690000  0.13100000  0.85530000  1
  N  N117  1  0.39940000  0.13050000  0.89240000  1
  N  N118  1  0.65280000  0.12480000  0.04570000  1
  N  N119  1  0.28020000  0.07660000  0.16990000  1
