# generated using pymatgen
data_Ag5H40(C7N6)4
_symmetry_space_group_name_H-M   'P 1'
_cell_length_a   11.80800000
_cell_length_b   13.05600000
_cell_length_c   22.96400000
_cell_angle_alpha   90.00000000
_cell_angle_beta   90.00000000
_cell_angle_gamma   91.94100000
_symmetry_Int_Tables_number   1
_chemical_formula_structural   Ag5H40(C7N6)4
_chemical_formula_sum   'Ag10 H80 C56 N48'
_cell_volume   3538.21948205
_cell_formula_units_Z   2
loop_
 _symmetry_equiv_pos_site_id
 _symmetry_equiv_pos_as_xyz
  1  'x, y, z'
loop_
 _atom_site_type_symbol
 _atom_site_label
 _atom_site_symmetry_multiplicity
 _atom_site_fract_x
 _atom_site_fract_y
 _atom_site_fract_z
 _atom_site_occupancy
  Ag  Ag0  1  0.39013000  0.11678000  0.70108000  1
  Ag  Ag1  1  0.89013000  0.11678000  0.79892000  1
  Ag  Ag2  1  0.77307000  0.24034000  0.21140000  1
  Ag  Ag3  1  0.27307000  0.24034000  0.28860000  1
  Ag  Ag4  1  0.50000000  0.50000000  0.00000000  1
  Ag  Ag5  1  1.00000000  0.50000000  0.50000000  1
  Ag  Ag6  1  0.72693000  0.75966000  0.71140000  1
  Ag  Ag7  1  0.22693000  0.75966000  0.78860000  1
  Ag  Ag8  1  0.10987000  0.88322000  0.20108000  1
  Ag  Ag9  1  0.60987000  0.88322000  0.29892000  1
  H  H10  1  0.04420000  0.03650000  0.08630000  1
  H  H11  1  0.54420000  0.03650000  0.41370000  1
  H  H12  1  0.92700000  0.05430000  0.24330000  1
  H  H13  1  0.42700000  0.05430000  0.25670000  1
  H  H14  1  0.11200000  0.13160000  0.70100000  1
  H  H15  1  0.61200000  0.13160000  0.79900000  1
  H  H16  1  0.93710000  0.19180000  0.04120000  1
  H  H17  1  0.43710000  0.19180000  0.45880000  1
  H  H18  1  0.86580000  0.25650000  0.08480000  1
  H  H19  1  0.36580000  0.25650000  0.41520000  1
  H  H20  1  0.10360000  0.26370000  0.09740000  1
  H  H21  1  0.60360000  0.26370000  0.40260000  1
  H  H22  1  0.50400000  0.28050000  0.20020000  1
  H  H23  1  0.00400000  0.28050000  0.29980000  1
  H  H24  1  0.80880000  0.28320000  0.69500000  1
  H  H25  1  0.30880000  0.28320000  0.80500000  1
  H  H26  1  0.53650000  0.28560000  0.62810000  1
  H  H27  1  0.03650000  0.28560000  0.87190000  1
  H  H28  1  0.06920000  0.30760000  0.00090000  1
  H  H29  1  0.56920000  0.30760000  0.49910000  1
  H  H30  1  0.65980000  0.32880000  0.61600000  1
  H  H31  1  0.15980000  0.32880000  0.88400000  1
  H  H32  1  0.29150000  0.33570000  0.01390000  1
  H  H33  1  0.79150000  0.33570000  0.48610000  1
  H  H34  1  0.01980000  0.34810000  0.11660000  1
  H  H35  1  0.51980000  0.34810000  0.38340000  1
  H  H36  1  0.49230000  0.38120000  0.73760000  1
  H  H37  1  0.99230000  0.38120000  0.76240000  1
  H  H38  1  0.22140000  0.38720000  0.55970000  1
  H  H39  1  0.72140000  0.38720000  0.94030000  1
  H  H40  1  0.40540000  0.39450000  0.68690000  1
  H  H41  1  0.90540000  0.39450000  0.81310000  1
  H  H42  1  0.99810000  0.39930000  0.02380000  1
  H  H43  1  0.49810000  0.39930000  0.47620000  1
  H  H44  1  0.22550000  0.45540000  0.21580000  1
  H  H45  1  0.72550000  0.45540000  0.28420000  1
  H  H46  1  0.62960000  0.46660000  0.68040000  1
  H  H47  1  0.12960000  0.46660000  0.81960000  1
  H  H48  1  0.54190000  0.46680000  0.62910000  1
  H  H49  1  0.04190000  0.46680000  0.87090000  1
  H  H50  1  0.95810000  0.53320000  0.12910000  1
  H  H51  1  0.45810000  0.53320000  0.37090000  1
  H  H52  1  0.87040000  0.53340000  0.18040000  1
  H  H53  1  0.37040000  0.53340000  0.31960000  1
  H  H54  1  0.27450000  0.54460000  0.71580000  1
  H  H55  1  0.77450000  0.54460000  0.78420000  1
  H  H56  1  0.50190000  0.60070000  0.52380000  1
  H  H57  1  0.00190000  0.60070000  0.97620000  1
  H  H58  1  0.09460000  0.60550000  0.18690000  1
  H  H59  1  0.59460000  0.60550000  0.31310000  1
  H  H60  1  0.27860000  0.61280000  0.05970000  1
  H  H61  1  0.77860000  0.61280000  0.44030000  1
  H  H62  1  0.00770000  0.61880000  0.23760000  1
  H  H63  1  0.50770000  0.61880000  0.26240000  1
  H  H64  1  0.48020000  0.65190000  0.61660000  1
  H  H65  1  0.98020000  0.65190000  0.88340000  1
  H  H66  1  0.20850000  0.66430000  0.51390000  1
  H  H67  1  0.70850000  0.66430000  0.98610000  1
  H  H68  1  0.84020000  0.67120000  0.11600000  1
  H  H69  1  0.34020000  0.67120000  0.38400000  1
  H  H70  1  0.43080000  0.69240000  0.50090000  1
  H  H71  1  0.93080000  0.69240000  0.99910000  1
  H  H72  1  0.96350000  0.71440000  0.12810000  1
  H  H73  1  0.46350000  0.71440000  0.37190000  1
  H  H74  1  0.69120000  0.71680000  0.19500000  1
  H  H75  1  0.19120000  0.71680000  0.30500000  1
  H  H76  1  0.99600000  0.71950000  0.70020000  1
  H  H77  1  0.49600000  0.71950000  0.79980000  1
  H  H78  1  0.39640000  0.73630000  0.59740000  1
  H  H79  1  0.89640000  0.73630000  0.90260000  1
  H  H80  1  0.63420000  0.74350000  0.58480000  1
  H  H81  1  0.13420000  0.74350000  0.91520000  1
  H  H82  1  0.56290000  0.80820000  0.54120000  1
  H  H83  1  0.06290000  0.80820000  0.95880000  1
  H  H84  1  0.38800000  0.86840000  0.20100000  1
  H  H85  1  0.88800000  0.86840000  0.29900000  1
  H  H86  1  0.57300000  0.94570000  0.74330000  1
  H  H87  1  0.07300000  0.94570000  0.75670000  1
  H  H88  1  0.45580000  0.96350000  0.58630000  1
  H  H89  1  0.95580000  0.96350000  0.91370000  1
  C  C90  1  0.00740000  0.05760000  0.11990000  1
  C  C91  1  0.50740000  0.05760000  0.38010000  1
  C  C92  1  0.94280000  0.06910000  0.20440000  1
  C  C93  1  0.44280000  0.06910000  0.29560000  1
  C  C94  1  0.13760000  0.17240000  0.73190000  1
  C  C95  1  0.63760000  0.17240000  0.76810000  1
  C  C96  1  0.93670000  0.22230000  0.07970000  1
  C  C97  1  0.43670000  0.22230000  0.42030000  1
  C  C98  1  0.74510000  0.25320000  0.71280000  1
  C  C99  1  0.24510000  0.25320000  0.78720000  1
  C  C100  1  0.03660000  0.29970000  0.08600000  1
  C  C101  1  0.53660000  0.29970000  0.41400000  1
  C  C102  1  0.60080000  0.32240000  0.64530000  1
  C  C103  1  0.10080000  0.32240000  0.85470000  1
  C  C104  1  0.53660000  0.33410000  0.22180000  1
  C  C105  1  0.03660000  0.33410000  0.27820000  1
  C  C106  1  0.05990000  0.35480000  0.03300000  1
  C  C107  1  0.55990000  0.35480000  0.46700000  1
  C  C108  1  0.26760000  0.39920000  0.02630000  1
  C  C109  1  0.76760000  0.39920000  0.47370000  1
  C  C110  1  0.47180000  0.42550000  0.70560000  1
  C  C111  1  0.97180000  0.42550000  0.79440000  1
  C  C112  1  0.56510000  0.42950000  0.66340000  1
  C  C113  1  0.06510000  0.42950000  0.83660000  1
  C  C114  1  0.15810000  0.43010000  0.23210000  1
  C  C115  1  0.65810000  0.43010000  0.26790000  1
  C  C116  1  0.24400000  0.45430000  0.55040000  1
  C  C117  1  0.74400000  0.45430000  0.94960000  1
  C  C118  1  0.25600000  0.54570000  0.05040000  1
  C  C119  1  0.75600000  0.54570000  0.44960000  1
  C  C120  1  0.34190000  0.56990000  0.73210000  1
  C  C121  1  0.84190000  0.56990000  0.76790000  1
  C  C122  1  0.93490000  0.57050000  0.16340000  1
  C  C123  1  0.43490000  0.57050000  0.33660000  1
  C  C124  1  0.02820000  0.57450000  0.20560000  1
  C  C125  1  0.52820000  0.57450000  0.29440000  1
  C  C126  1  0.23240000  0.60080000  0.52630000  1
  C  C127  1  0.73240000  0.60080000  0.97370000  1
  C  C128  1  0.44010000  0.64520000  0.53300000  1
  C  C129  1  0.94010000  0.64520000  0.96700000  1
  C  C130  1  0.96340000  0.66590000  0.72180000  1
  C  C131  1  0.46340000  0.66590000  0.77820000  1
  C  C132  1  0.89920000  0.67760000  0.14530000  1
  C  C133  1  0.39920000  0.67760000  0.35470000  1
  C  C134  1  0.46340000  0.70030000  0.58600000  1
  C  C135  1  0.96340000  0.70030000  0.91400000  1
  C  C136  1  0.75490000  0.74680000  0.21280000  1
  C  C137  1  0.25490000  0.74680000  0.28720000  1
  C  C138  1  0.56330000  0.77770000  0.57970000  1
  C  C139  1  0.06330000  0.77770000  0.92030000  1
  C  C140  1  0.36240000  0.82760000  0.23190000  1
  C  C141  1  0.86240000  0.82760000  0.26810000  1
  C  C142  1  0.55720000  0.93090000  0.70440000  1
  C  C143  1  0.05720000  0.93090000  0.79560000  1
  C  C144  1  0.49260000  0.94240000  0.61990000  1
  C  C145  1  0.99260000  0.94240000  0.88010000  1
  N  N146  1  0.00630000  0.00730000  0.17120000  1
  N  N147  1  0.50630000  0.00730000  0.32880000  1
  N  N148  1  0.94780000  0.14180000  0.12450000  1
  N  N149  1  0.44780000  0.14180000  0.37550000  1
  N  N150  1  0.90520000  0.14980000  0.17920000  1
  N  N151  1  0.40520000  0.14980000  0.32080000  1
  N  N152  1  0.24800000  0.19470000  0.74050000  1
  N  N153  1  0.74800000  0.19470000  0.75950000  1
  N  N154  1  0.56950000  0.21080000  0.73130000  1
  N  N155  1  0.06950000  0.21080000  0.76870000  1
  N  N156  1  0.64260000  0.26370000  0.69470000  1
  N  N157  1  0.14260000  0.26370000  0.80530000  1
  N  N158  1  0.64470000  0.34350000  0.23780000  1
  N  N159  1  0.14470000  0.34350000  0.26220000  1
  N  N160  1  0.48320000  0.41490000  0.24200000  1
  N  N161  1  0.98320000  0.41490000  0.25800000  1
  N  N162  1  0.16620000  0.41630000  0.04290000  1
  N  N163  1  0.66620000  0.41630000  0.45710000  1
  N  N164  1  0.05830000  0.47420000  0.22950000  1
  N  N165  1  0.55830000  0.47420000  0.27050000  1
  N  N166  1  0.33080000  0.47870000  0.02900000  1
  N  N167  1  0.83080000  0.47870000  0.47100000  1
  N  N168  1  0.34500000  0.48710000  0.55720000  1
  N  N169  1  0.84500000  0.48710000  0.94280000  1
  N  N170  1  0.15500000  0.51290000  0.05720000  1
  N  N171  1  0.65500000  0.51290000  0.44280000  1
  N  N172  1  0.16920000  0.52130000  0.52900000  1
  N  N173  1  0.66920000  0.52130000  0.97100000  1
  N  N174  1  0.44170000  0.52580000  0.72950000  1
  N  N175  1  0.94170000  0.52580000  0.77050000  1
  N  N176  1  0.33380000  0.58370000  0.54290000  1
  N  N177  1  0.83380000  0.58370000  0.95710000  1
  N  N178  1  0.01680000  0.58510000  0.74200000  1
  N  N179  1  0.51680000  0.58510000  0.75800000  1
  N  N180  1  0.85530000  0.65650000  0.73780000  1
  N  N181  1  0.35530000  0.65650000  0.76220000  1
  N  N182  1  0.85740000  0.73630000  0.19470000  1
  N  N183  1  0.35740000  0.73630000  0.30530000  1
  N  N184  1  0.93050000  0.78920000  0.23130000  1
  N  N185  1  0.43050000  0.78920000  0.26870000  1
  N  N186  1  0.25200000  0.80530000  0.24050000  1
  N  N187  1  0.75200000  0.80530000  0.25950000  1
  N  N188  1  0.59480000  0.85020000  0.67920000  1
  N  N189  1  0.09480000  0.85020000  0.82080000  1
  N  N190  1  0.55220000  0.85820000  0.62450000  1
  N  N191  1  0.05220000  0.85820000  0.87550000  1
  N  N192  1  0.49370000  0.99270000  0.67120000  1
  N  N193  1  0.99370000  0.99270000  0.82880000  1
