# generated using pymatgen
data_LiH4C5NO
_symmetry_space_group_name_H-M   'P 1'
_cell_length_a   10.99090000
_cell_length_b   10.99090000
_cell_length_c   10.99100000
_cell_angle_alpha   90.00000000
_cell_angle_beta   90.00000000
_cell_angle_gamma   90.00000000
_symmetry_Int_Tables_number   1
_chemical_formula_structural   LiH4C5NO
_chemical_formula_sum   'Li8 H32 C40 N8 O8'
_cell_volume   1327.71151196
_cell_formula_units_Z   8
loop_
 _symmetry_equiv_pos_site_id
 _symmetry_equiv_pos_as_xyz
  1  'x, y, z'
loop_
 _atom_site_type_symbol
 _atom_site_label
 _atom_site_symmetry_multiplicity
 _atom_site_fract_x
 _atom_site_fract_y
 _atom_site_fract_z
 _atom_site_occupancy
  Li  Li0  1  0.08160000  0.41080000  0.83640000  1
  Li  Li1  1  0.08160000  0.58920000  0.66360000  1
  Li  Li2  1  0.41080000  0.08160000  0.33640000  1
  Li  Li3  1  0.41080000  0.91840000  0.16360000  1
  Li  Li4  1  0.58920000  0.08160000  0.16360000  1
  Li  Li5  1  0.58920000  0.91840000  0.33640000  1
  Li  Li6  1  0.91840000  0.41080000  0.66360000  1
  Li  Li7  1  0.91840000  0.58920000  0.83640000  1
  H  H8  1  0.06450000  0.24950000  0.05500000  1
  H  H9  1  0.06450000  0.75050000  0.44500000  1
  H  H10  1  0.13230000  0.18130000  0.67340000  1
  H  H11  1  0.13230000  0.81870000  0.82660000  1
  H  H12  1  0.18130000  0.13230000  0.17340000  1
  H  H13  1  0.18130000  0.86770000  0.32660000  1
  H  H14  1  0.20660000  0.45680000  0.45970000  1
  H  H15  1  0.20660000  0.54320000  0.04030000  1
  H  H16  1  0.24950000  0.06450000  0.55500000  1
  H  H17  1  0.24950000  0.93550000  0.94500000  1
  H  H18  1  0.32090000  0.32960000  0.35030000  1
  H  H19  1  0.32090000  0.67040000  0.14970000  1
  H  H20  1  0.32960000  0.32090000  0.85030000  1
  H  H21  1  0.32960000  0.67910000  0.64970000  1
  H  H22  1  0.45680000  0.20660000  0.95970000  1
  H  H23  1  0.45680000  0.79340000  0.54030000  1
  H  H24  1  0.54320000  0.20660000  0.54030000  1
  H  H25  1  0.54320000  0.79340000  0.95970000  1
  H  H26  1  0.67040000  0.32090000  0.64970000  1
  H  H27  1  0.67040000  0.67910000  0.85030000  1
  H  H28  1  0.67910000  0.32960000  0.14970000  1
  H  H29  1  0.67910000  0.67040000  0.35030000  1
  H  H30  1  0.75050000  0.06450000  0.94500000  1
  H  H31  1  0.75050000  0.93550000  0.55500000  1
  H  H32  1  0.79340000  0.45680000  0.04030000  1
  H  H33  1  0.79340000  0.54320000  0.45970000  1
  H  H34  1  0.81870000  0.13230000  0.32660000  1
  H  H35  1  0.81870000  0.86770000  0.17340000  1
  H  H36  1  0.86770000  0.18130000  0.82660000  1
  H  H37  1  0.86770000  0.81870000  0.67340000  1
  H  H38  1  0.93550000  0.24950000  0.44500000  1
  H  H39  1  0.93550000  0.75050000  0.05500000  1
  C  C40  1  0.14620000  0.24230000  0.03410000  1
  C  C41  1  0.14620000  0.75770000  0.46590000  1
  C  C42  1  0.16210000  0.33800000  0.58840000  1
  C  C43  1  0.16210000  0.66200000  0.91160000  1
  C  C44  1  0.17290000  0.21670000  0.60820000  1
  C  C45  1  0.17290000  0.78330000  0.89180000  1
  C  C46  1  0.21550000  0.37660000  0.48500000  1
  C  C47  1  0.21550000  0.62340000  0.01500000  1
  C  C48  1  0.21670000  0.17290000  0.10820000  1
  C  C49  1  0.21670000  0.82710000  0.39180000  1
  C  C50  1  0.24230000  0.14620000  0.53410000  1
  C  C51  1  0.24230000  0.85380000  0.96590000  1
  C  C52  1  0.28220000  0.29750000  0.41830000  1
  C  C53  1  0.28220000  0.70250000  0.08170000  1
  C  C54  1  0.29750000  0.28220000  0.91830000  1
  C  C55  1  0.29750000  0.71780000  0.58170000  1
  C  C56  1  0.33800000  0.16210000  0.08840000  1
  C  C57  1  0.33800000  0.83790000  0.41160000  1
  C  C58  1  0.37660000  0.21550000  0.98500000  1
  C  C59  1  0.37660000  0.78450000  0.51500000  1
  C  C60  1  0.62340000  0.21550000  0.51500000  1
  C  C61  1  0.62340000  0.78450000  0.98500000  1
  C  C62  1  0.66200000  0.16210000  0.41160000  1
  C  C63  1  0.66200000  0.83790000  0.08840000  1
  C  C64  1  0.70250000  0.28220000  0.58170000  1
  C  C65  1  0.70250000  0.71780000  0.91830000  1
  C  C66  1  0.71780000  0.29750000  0.08170000  1
  C  C67  1  0.71780000  0.70250000  0.41830000  1
  C  C68  1  0.75770000  0.14620000  0.96590000  1
  C  C69  1  0.75770000  0.85380000  0.53410000  1
  C  C70  1  0.78330000  0.17290000  0.39180000  1
  C  C71  1  0.78330000  0.82710000  0.10820000  1
  C  C72  1  0.78450000  0.37660000  0.01500000  1
  C  C73  1  0.78450000  0.62340000  0.48500000  1
  C  C74  1  0.82710000  0.21670000  0.89180000  1
  C  C75  1  0.82710000  0.78330000  0.60820000  1
  C  C76  1  0.83790000  0.33800000  0.91160000  1
  C  C77  1  0.83790000  0.66200000  0.58840000  1
  C  C78  1  0.85380000  0.24230000  0.46590000  1
  C  C79  1  0.85380000  0.75770000  0.03410000  1
  N  N80  1  0.18080000  0.29880000  0.93840000  1
  N  N81  1  0.18080000  0.70120000  0.56160000  1
  N  N82  1  0.29880000  0.18080000  0.43840000  1
  N  N83  1  0.29880000  0.81920000  0.06160000  1
  N  N84  1  0.70120000  0.18080000  0.06160000  1
  N  N85  1  0.70120000  0.81920000  0.43840000  1
  N  N86  1  0.81920000  0.29880000  0.56160000  1
  N  N87  1  0.81920000  0.70120000  0.93840000  1
  O  O88  1  0.09630000  0.41060000  0.65860000  1
  O  O89  1  0.09630000  0.58940000  0.84140000  1
  O  O90  1  0.41060000  0.09630000  0.15860000  1
  O  O91  1  0.41060000  0.90370000  0.34140000  1
  O  O92  1  0.58940000  0.09630000  0.34140000  1
  O  O93  1  0.58940000  0.90370000  0.15860000  1
  O  O94  1  0.90370000  0.41060000  0.84140000  1
  O  O95  1  0.90370000  0.58940000  0.65860000  1
