# generated using pymatgen
data_Zn7H24C44(NO4)6
_symmetry_space_group_name_H-M   'P 1'
_cell_length_a   17.47900000
_cell_length_b   25.11700000
_cell_length_c   26.60700000
_cell_angle_alpha   90.00000000
_cell_angle_beta   90.00000000
_cell_angle_gamma   90.00000000
_symmetry_Int_Tables_number   1
_chemical_formula_structural   Zn7H24C44(NO4)6
_chemical_formula_sum   'Zn28 H96 C176 N24 O96'
_cell_volume   11681.00628410
_cell_formula_units_Z   4
loop_
 _symmetry_equiv_pos_site_id
 _symmetry_equiv_pos_as_xyz
  1  'x, y, z'
loop_
 _atom_site_type_symbol
 _atom_site_label
 _atom_site_symmetry_multiplicity
 _atom_site_fract_x
 _atom_site_fract_y
 _atom_site_fract_z
 _atom_site_occupancy
  Zn  Zn0  1  0.23911000  0.07901000  0.17102000  1
  Zn  Zn1  1  0.23911000  0.57901000  0.32898000  1
  Zn  Zn2  1  0.27920000  0.15112000  0.42537000  1
  Zn  Zn3  1  0.27920000  0.65112000  0.07463000  1
  Zn  Zn4  1  0.28033000  0.27965000  0.80042000  1
  Zn  Zn5  1  0.28033000  0.77965000  0.69958000  1
  Zn  Zn6  1  0.31820000  0.10356000  0.64663000  1
  Zn  Zn7  1  0.31820000  0.60356000  0.85337000  1
  Zn  Zn8  1  0.40131000  0.04563000  0.09438000  1
  Zn  Zn9  1  0.40131000  0.54563000  0.40562000  1
  Zn  Zn10  1  0.43414000  0.22138000  0.46167000  1
  Zn  Zn11  1  0.43414000  0.72138000  0.03833000  1
  Zn  Zn12  1  0.43485000  0.21029000  0.83719000  1
  Zn  Zn13  1  0.43485000  0.71029000  0.66281000  1
  Zn  Zn14  1  0.73911000  0.42099000  0.67102000  1
  Zn  Zn15  1  0.73911000  0.92099000  0.82898000  1
  Zn  Zn16  1  0.77920000  0.34888000  0.92537000  1
  Zn  Zn17  1  0.77920000  0.84888000  0.57463000  1
  Zn  Zn18  1  0.78033000  0.22035000  0.30042000  1
  Zn  Zn19  1  0.78033000  0.72035000  0.19958000  1
  Zn  Zn20  1  0.81820000  0.39644000  0.14663000  1
  Zn  Zn21  1  0.81820000  0.89644000  0.35337000  1
  Zn  Zn22  1  0.90131000  0.45437000  0.59438000  1
  Zn  Zn23  1  0.90131000  0.95437000  0.90562000  1
  Zn  Zn24  1  0.93414000  0.27862000  0.96167000  1
  Zn  Zn25  1  0.93414000  0.77862000  0.53833000  1
  Zn  Zn26  1  0.93485000  0.28971000  0.33719000  1
  Zn  Zn27  1  0.93485000  0.78971000  0.16281000  1
  H  H28  1  0.05530000  0.32470000  0.83970000  1
  H  H29  1  0.05530000  0.82470000  0.66030000  1
  H  H30  1  0.05570000  0.15910000  0.37120000  1
  H  H31  1  0.05570000  0.65910000  0.12880000  1
  H  H32  1  0.06190000  0.38060000  0.70070000  1
  H  H33  1  0.06190000  0.88060000  0.79930000  1
  H  H34  1  0.06860000  0.00240000  0.39200000  1
  H  H35  1  0.06860000  0.50240000  0.10800000  1
  H  H36  1  0.14500000  0.16390000  0.05820000  1
  H  H37  1  0.14500000  0.66390000  0.44180000  1
  H  H38  1  0.14660000  0.43770000  0.36250000  1
  H  H39  1  0.14660000  0.93770000  0.13750000  1
  H  H40  1  0.16140000  0.23940000  0.92460000  1
  H  H41  1  0.16140000  0.73940000  0.57540000  1
  H  H42  1  0.16490000  0.28190000  0.38960000  1
  H  H43  1  0.16490000  0.78190000  0.11040000  1
  H  H44  1  0.18030000  0.09840000  0.52750000  1
  H  H45  1  0.18030000  0.59840000  0.97250000  1
  H  H46  1  0.18840000  0.22410000  0.70030000  1
  H  H47  1  0.18840000  0.72410000  0.79970000  1
  H  H48  1  0.22360000  0.06210000  0.56600000  1
  H  H49  1  0.22360000  0.56210000  0.93400000  1
  H  H50  1  0.22740000  0.19860000  0.65300000  1
  H  H51  1  0.22740000  0.69860000  0.84700000  1
  H  H52  1  0.23700000  0.05470000  0.50820000  1
  H  H53  1  0.23700000  0.55470000  0.99180000  1
  H  H54  1  0.24890000  0.25660000  0.66940000  1
  H  H55  1  0.24890000  0.75660000  0.83060000  1
  H  H56  1  0.33810000  0.15470000  0.97580000  1
  H  H57  1  0.33810000  0.65470000  0.52420000  1
  H  H58  1  0.34310000  0.37880000  0.41340000  1
  H  H59  1  0.34310000  0.87880000  0.08660000  1
  H  H60  1  0.37140000  0.10200000  0.28210000  1
  H  H61  1  0.37140000  0.60200000  0.21790000  1
  H  H62  1  0.37820000  0.43720000  0.83610000  1
  H  H63  1  0.37820000  0.93720000  0.66390000  1
  H  H64  1  0.41530000  0.22520000  0.61110000  1
  H  H65  1  0.41530000  0.72520000  0.88890000  1
  H  H66  1  0.42380000  0.07650000  0.74170000  1
  H  H67  1  0.42380000  0.57650000  0.75830000  1
  H  H68  1  0.45810000  0.17070000  0.61720000  1
  H  H69  1  0.45810000  0.67070000  0.88280000  1
  H  H70  1  0.47600000  0.11370000  0.77440000  1
  H  H71  1  0.47600000  0.61370000  0.72560000  1
  H  H72  1  0.48000000  0.20940000  0.57320000  1
  H  H73  1  0.48000000  0.70940000  0.92680000  1
  H  H74  1  0.48430000  0.11340000  0.71570000  1
  H  H75  1  0.48430000  0.61340000  0.78430000  1
  H  H76  1  0.55530000  0.17530000  0.33970000  1
  H  H77  1  0.55530000  0.67530000  0.16030000  1
  H  H78  1  0.55570000  0.34090000  0.87120000  1
  H  H79  1  0.55570000  0.84090000  0.62880000  1
  H  H80  1  0.56190000  0.11940000  0.20070000  1
  H  H81  1  0.56190000  0.61940000  0.29930000  1
  H  H82  1  0.56860000  0.49760000  0.89200000  1
  H  H83  1  0.56860000  0.99760000  0.60800000  1
  H  H84  1  0.64500000  0.33610000  0.55820000  1
  H  H85  1  0.64500000  0.83610000  0.94180000  1
  H  H86  1  0.64660000  0.06230000  0.86250000  1
  H  H87  1  0.64660000  0.56230000  0.63750000  1
  H  H88  1  0.66140000  0.26060000  0.42460000  1
  H  H89  1  0.66140000  0.76060000  0.07540000  1
  H  H90  1  0.66490000  0.21810000  0.88960000  1
  H  H91  1  0.66490000  0.71810000  0.61040000  1
  H  H92  1  0.68030000  0.40160000  0.02750000  1
  H  H93  1  0.68030000  0.90160000  0.47250000  1
  H  H94  1  0.68840000  0.27590000  0.20030000  1
  H  H95  1  0.68840000  0.77590000  0.29970000  1
  H  H96  1  0.72360000  0.43790000  0.06600000  1
  H  H97  1  0.72360000  0.93790000  0.43400000  1
  H  H98  1  0.72740000  0.30140000  0.15300000  1
  H  H99  1  0.72740000  0.80140000  0.34700000  1
  H  H100  1  0.73700000  0.44530000  0.00820000  1
  H  H101  1  0.73700000  0.94530000  0.49180000  1
  H  H102  1  0.74890000  0.24340000  0.16940000  1
  H  H103  1  0.74890000  0.74340000  0.33060000  1
  H  H104  1  0.83810000  0.34530000  0.47580000  1
  H  H105  1  0.83810000  0.84530000  0.02420000  1
  H  H106  1  0.84310000  0.12120000  0.91340000  1
  H  H107  1  0.84310000  0.62120000  0.58660000  1
  H  H108  1  0.87140000  0.39800000  0.78210000  1
  H  H109  1  0.87140000  0.89800000  0.71790000  1
  H  H110  1  0.87820000  0.06280000  0.33610000  1
  H  H111  1  0.87820000  0.56280000  0.16390000  1
  H  H112  1  0.91530000  0.27480000  0.11110000  1
  H  H113  1  0.91530000  0.77480000  0.38890000  1
  H  H114  1  0.92380000  0.42350000  0.24170000  1
  H  H115  1  0.92380000  0.92350000  0.25830000  1
  H  H116  1  0.95810000  0.32930000  0.11720000  1
  H  H117  1  0.95810000  0.82930000  0.38280000  1
  H  H118  1  0.97600000  0.38630000  0.27440000  1
  H  H119  1  0.97600000  0.88630000  0.22560000  1
  H  H120  1  0.98000000  0.29060000  0.07320000  1
  H  H121  1  0.98000000  0.79060000  0.42680000  1
  H  H122  1  0.98430000  0.38660000  0.21570000  1
  H  H123  1  0.98430000  0.88660000  0.28430000  1
  C  C124  1  0.03080000  0.34180000  0.81310000  1
  C  C125  1  0.03080000  0.84180000  0.68690000  1
  C  C126  1  0.03390000  0.12540000  0.36860000  1
  C  C127  1  0.03390000  0.62540000  0.13140000  1
  C  C128  1  0.03480000  0.37470000  0.73020000  1
  C  C129  1  0.03480000  0.87470000  0.76980000  1
  C  C130  1  0.04020000  0.03170000  0.38160000  1
  C  C131  1  0.04020000  0.53170000  0.11840000  1
  C  C132  1  0.05800000  0.34970000  0.36210000  1
  C  C133  1  0.05800000  0.84970000  0.13790000  1
  C  C134  1  0.05840000  0.22300000  0.99620000  1
  C  C135  1  0.05840000  0.72300000  0.50380000  1
  C  C136  1  0.06990000  0.35020000  0.76850000  1
  C  C137  1  0.06990000  0.85020000  0.73150000  1
  C  C138  1  0.07360000  0.08230000  0.38390000  1
  C  C139  1  0.07360000  0.58230000  0.11610000  1
  C  C140  1  0.14130000  0.20440000  0.99230000  1
  C  C141  1  0.14130000  0.70440000  0.50770000  1
  C  C142  1  0.14260000  0.35840000  0.37490000  1
  C  C143  1  0.14260000  0.85840000  0.12510000  1
  C  C144  1  0.15110000  0.33100000  0.76570000  1
  C  C145  1  0.15110000  0.83100000  0.73430000  1
  C  C146  1  0.15630000  0.08870000  0.40280000  1
  C  C147  1  0.15630000  0.58870000  0.09720000  1
  C  C148  1  0.17340000  0.17300000  0.03000000  1
  C  C149  1  0.17340000  0.67300000  0.47000000  1
  C  C150  1  0.17580000  0.40880000  0.37280000  1
  C  C151  1  0.17580000  0.90880000  0.12720000  1
  C  C152  1  0.18300000  0.21800000  0.94940000  1
  C  C153  1  0.18300000  0.71800000  0.55060000  1
  C  C154  1  0.18630000  0.31570000  0.38970000  1
  C  C155  1  0.18630000  0.81570000  0.11030000  1
  C  C156  1  0.22740000  0.08010000  0.53430000  1
  C  C157  1  0.22740000  0.58010000  0.96570000  1
  C  C158  1  0.23490000  0.22180000  0.68120000  1
  C  C159  1  0.23490000  0.72180000  0.81880000  1
  C  C160  1  0.24810000  0.15560000  0.02480000  1
  C  C161  1  0.24810000  0.65560000  0.47520000  1
  C  C162  1  0.25080000  0.41640000  0.38580000  1
  C  C163  1  0.25080000  0.91640000  0.11420000  1
  C  C164  1  0.25750000  0.19900000  0.94450000  1
  C  C165  1  0.25750000  0.69900000  0.55550000  1
  C  C166  1  0.26190000  0.32200000  0.40500000  1
  C  C167  1  0.26190000  0.82200000  0.09500000  1
  C  C168  1  0.28240000  0.11920000  0.06500000  1
  C  C169  1  0.28240000  0.61920000  0.43500000  1
  C  C170  1  0.28460000  0.47100000  0.38300000  1
  C  C171  1  0.28460000  0.97100000  0.11700000  1
  C  C172  1  0.28900000  0.16810000  0.98030000  1
  C  C173  1  0.28900000  0.66810000  0.51970000  1
  C  C174  1  0.29140000  0.11940000  0.53620000  1
  C  C175  1  0.29140000  0.61940000  0.96380000  1
  C  C176  1  0.29290000  0.37340000  0.40300000  1
  C  C177  1  0.29290000  0.87340000  0.09700000  1
  C  C178  1  0.29830000  0.20000000  0.71420000  1
  C  C179  1  0.29830000  0.70000000  0.78580000  1
  C  C180  1  0.30160000  0.21390000  0.89800000  1
  C  C181  1  0.30160000  0.71390000  0.60200000  1
  C  C182  1  0.30580000  0.27430000  0.42330000  1
  C  C183  1  0.30580000  0.77430000  0.07670000  1
  C  C184  1  0.38140000  0.17030000  0.56090000  1
  C  C185  1  0.38140000  0.67030000  0.93910000  1
  C  C186  1  0.39290000  0.15210000  0.73960000  1
  C  C187  1  0.39290000  0.65210000  0.76040000  1
  C  C188  1  0.41390000  0.15000000  0.36670000  1
  C  C189  1  0.41390000  0.65000000  0.13330000  1
  C  C190  1  0.41560000  0.33440000  0.83380000  1
  C  C191  1  0.41560000  0.83440000  0.66620000  1
  C  C192  1  0.41960000  0.08440000  0.18990000  1
  C  C193  1  0.41960000  0.58440000  0.31010000  1
  C  C194  1  0.42080000  0.11500000  0.27830000  1
  C  C195  1  0.42080000  0.61500000  0.22170000  1
  C  C196  1  0.42770000  0.43230000  0.84810000  1
  C  C197  1  0.42770000  0.93230000  0.65190000  1
  C  C198  1  0.43240000  0.02950000  0.63610000  1
  C  C199  1  0.43240000  0.52950000  0.86390000  1
  C  C200  1  0.43870000  0.19620000  0.59340000  1
  C  C201  1  0.43870000  0.69620000  0.90660000  1
  C  C202  1  0.44890000  0.11050000  0.74310000  1
  C  C203  1  0.44890000  0.61050000  0.75690000  1
  C  C204  1  0.45700000  0.14170000  0.31850000  1
  C  C205  1  0.45700000  0.64170000  0.18150000  1
  C  C206  1  0.45720000  0.38060000  0.84820000  1
  C  C207  1  0.45720000  0.88060000  0.65180000  1
  C  C208  1  0.45880000  0.10830000  0.23320000  1
  C  C209  1  0.45880000  0.60830000  0.26680000  1
  C  C210  1  0.46680000  0.47620000  0.86440000  1
  C  C211  1  0.46680000  0.97620000  0.63560000  1
  C  C212  1  0.53080000  0.15820000  0.31310000  1
  C  C213  1  0.53080000  0.65820000  0.18690000  1
  C  C214  1  0.53390000  0.37460000  0.86860000  1
  C  C215  1  0.53390000  0.87460000  0.63140000  1
  C  C216  1  0.53480000  0.12530000  0.23020000  1
  C  C217  1  0.53480000  0.62530000  0.26980000  1
  C  C218  1  0.54020000  0.46830000  0.88160000  1
  C  C219  1  0.54020000  0.96830000  0.61840000  1
  C  C220  1  0.55800000  0.15030000  0.86210000  1
  C  C221  1  0.55800000  0.65030000  0.63790000  1
  C  C222  1  0.55840000  0.27700000  0.49620000  1
  C  C223  1  0.55840000  0.77700000  0.00380000  1
  C  C224  1  0.56990000  0.14980000  0.26850000  1
  C  C225  1  0.56990000  0.64980000  0.23150000  1
  C  C226  1  0.57360000  0.41770000  0.88390000  1
  C  C227  1  0.57360000  0.91770000  0.61610000  1
  C  C228  1  0.64130000  0.29560000  0.49230000  1
  C  C229  1  0.64130000  0.79560000  0.00770000  1
  C  C230  1  0.64260000  0.14160000  0.87490000  1
  C  C231  1  0.64260000  0.64160000  0.62510000  1
  C  C232  1  0.65110000  0.16900000  0.26570000  1
  C  C233  1  0.65110000  0.66900000  0.23430000  1
  C  C234  1  0.65630000  0.41130000  0.90280000  1
  C  C235  1  0.65630000  0.91130000  0.59720000  1
  C  C236  1  0.67340000  0.32700000  0.53000000  1
  C  C237  1  0.67340000  0.82700000  0.97000000  1
  C  C238  1  0.67580000  0.09120000  0.87280000  1
  C  C239  1  0.67580000  0.59120000  0.62720000  1
  C  C240  1  0.68300000  0.28200000  0.44940000  1
  C  C241  1  0.68300000  0.78200000  0.05060000  1
  C  C242  1  0.68630000  0.18430000  0.88970000  1
  C  C243  1  0.68630000  0.68430000  0.61030000  1
  C  C244  1  0.72740000  0.41990000  0.03430000  1
  C  C245  1  0.72740000  0.91990000  0.46570000  1
  C  C246  1  0.73490000  0.27820000  0.18120000  1
  C  C247  1  0.73490000  0.77820000  0.31880000  1
  C  C248  1  0.74810000  0.34440000  0.52480000  1
  C  C249  1  0.74810000  0.84440000  0.97520000  1
  C  C250  1  0.75080000  0.08360000  0.88580000  1
  C  C251  1  0.75080000  0.58360000  0.61420000  1
  C  C252  1  0.75750000  0.30100000  0.44450000  1
  C  C253  1  0.75750000  0.80100000  0.05550000  1
  C  C254  1  0.76190000  0.17800000  0.90500000  1
  C  C255  1  0.76190000  0.67800000  0.59500000  1
  C  C256  1  0.78240000  0.38080000  0.56500000  1
  C  C257  1  0.78240000  0.88080000  0.93500000  1
  C  C258  1  0.78460000  0.02900000  0.88300000  1
  C  C259  1  0.78460000  0.52900000  0.61700000  1
  C  C260  1  0.78900000  0.33190000  0.48030000  1
  C  C261  1  0.78900000  0.83190000  0.01970000  1
  C  C262  1  0.79140000  0.38060000  0.03620000  1
  C  C263  1  0.79140000  0.88060000  0.46380000  1
  C  C264  1  0.79290000  0.12660000  0.90300000  1
  C  C265  1  0.79290000  0.62660000  0.59700000  1
  C  C266  1  0.79830000  0.30000000  0.21420000  1
  C  C267  1  0.79830000  0.80000000  0.28580000  1
  C  C268  1  0.80160000  0.28610000  0.39800000  1
  C  C269  1  0.80160000  0.78610000  0.10200000  1
  C  C270  1  0.80580000  0.22570000  0.92330000  1
  C  C271  1  0.80580000  0.72570000  0.57670000  1
  C  C272  1  0.88140000  0.32970000  0.06090000  1
  C  C273  1  0.88140000  0.82970000  0.43910000  1
  C  C274  1  0.89290000  0.34790000  0.23960000  1
  C  C275  1  0.89290000  0.84790000  0.26040000  1
  C  C276  1  0.91390000  0.35000000  0.86670000  1
  C  C277  1  0.91390000  0.85000000  0.63330000  1
  C  C278  1  0.91560000  0.16560000  0.33380000  1
  C  C279  1  0.91560000  0.66560000  0.16620000  1
  C  C280  1  0.91960000  0.41560000  0.68990000  1
  C  C281  1  0.91960000  0.91560000  0.81010000  1
  C  C282  1  0.92080000  0.38500000  0.77830000  1
  C  C283  1  0.92080000  0.88500000  0.72170000  1
  C  C284  1  0.92770000  0.06770000  0.34810000  1
  C  C285  1  0.92770000  0.56770000  0.15190000  1
  C  C286  1  0.93240000  0.47050000  0.13610000  1
  C  C287  1  0.93240000  0.97050000  0.36390000  1
  C  C288  1  0.93870000  0.30380000  0.09340000  1
  C  C289  1  0.93870000  0.80380000  0.40660000  1
  C  C290  1  0.94890000  0.38950000  0.24310000  1
  C  C291  1  0.94890000  0.88950000  0.25690000  1
  C  C292  1  0.95700000  0.35830000  0.81850000  1
  C  C293  1  0.95700000  0.85830000  0.68150000  1
  C  C294  1  0.95720000  0.11940000  0.34820000  1
  C  C295  1  0.95720000  0.61940000  0.15180000  1
  C  C296  1  0.95880000  0.39170000  0.73320000  1
  C  C297  1  0.95880000  0.89170000  0.76680000  1
  C  C298  1  0.96680000  0.02380000  0.36440000  1
  C  C299  1  0.96680000  0.52380000  0.13560000  1
  N  N300  1  0.31760000  0.14420000  0.49560000  1
  N  N301  1  0.31760000  0.64420000  0.00440000  1
  N  N302  1  0.32090000  0.22120000  0.75630000  1
  N  N303  1  0.32090000  0.72120000  0.74370000  1
  N  N304  1  0.32800000  0.13560000  0.57740000  1
  N  N305  1  0.32800000  0.63560000  0.92260000  1
  N  N306  1  0.34060000  0.15680000  0.70210000  1
  N  N307  1  0.34060000  0.65680000  0.79790000  1
  N  N308  1  0.37690000  0.17680000  0.51210000  1
  N  N309  1  0.37690000  0.67680000  0.98790000  1
  N  N310  1  0.38230000  0.19040000  0.77320000  1
  N  N311  1  0.38230000  0.69040000  0.72680000  1
  N  N312  1  0.81760000  0.35580000  0.99560000  1
  N  N313  1  0.81760000  0.85580000  0.50440000  1
  N  N314  1  0.82090000  0.27880000  0.25630000  1
  N  N315  1  0.82090000  0.77880000  0.24370000  1
  N  N316  1  0.82800000  0.36440000  0.07740000  1
  N  N317  1  0.82800000  0.86440000  0.42260000  1
  N  N318  1  0.84060000  0.34320000  0.20210000  1
  N  N319  1  0.84060000  0.84320000  0.29790000  1
  N  N320  1  0.87690000  0.32320000  0.01210000  1
  N  N321  1  0.87690000  0.82320000  0.48790000  1
  N  N322  1  0.88230000  0.30960000  0.27320000  1
  N  N323  1  0.88230000  0.80960000  0.22680000  1
  O  O324  1  0.01540000  0.38950000  0.35950000  1
  O  O325  1  0.01540000  0.88950000  0.14050000  1
  O  O326  1  0.01940000  0.20340000  0.02890000  1
  O  O327  1  0.01940000  0.70340000  0.47110000  1
  O  O328  1  0.03920000  0.25880000  0.96660000  1
  O  O329  1  0.03920000  0.75880000  0.53340000  1
  O  O330  1  0.03930000  0.30340000  0.35070000  1
  O  O331  1  0.03930000  0.80340000  0.14930000  1
  O  O332  1  0.17460000  0.13730000  0.41020000  1
  O  O333  1  0.17460000  0.63730000  0.08980000  1
  O  O334  1  0.17500000  0.30060000  0.79770000  1
  O  O335  1  0.17500000  0.80060000  0.70230000  1
  O  O336  1  0.19070000  0.34490000  0.72960000  1
  O  O337  1  0.19070000  0.84490000  0.77040000  1
  O  O338  1  0.19760000  0.05120000  0.40950000  1
  O  O339  1  0.19760000  0.55120000  0.09050000  1
  O  O340  1  0.24530000  0.00680000  0.13460000  1
  O  O341  1  0.24530000  0.50680000  0.36540000  1
  O  O342  1  0.25080000  0.11790000  0.10580000  1
  O  O343  1  0.25080000  0.61790000  0.39420000  1
  O  O344  1  0.26840000  0.24030000  0.86640000  1
  O  O345  1  0.26840000  0.74030000  0.63360000  1
  O  O346  1  0.27360000  0.23050000  0.41800000  1
  O  O347  1  0.27360000  0.73050000  0.08200000  1
  O  O348  1  0.34580000  0.09660000  0.05330000  1
  O  O349  1  0.34580000  0.59660000  0.44670000  1
  O  O350  1  0.34720000  0.34000000  0.81560000  1
  O  O351  1  0.34720000  0.84000000  0.68440000  1
  O  O352  1  0.34820000  0.13240000  0.37100000  1
  O  O353  1  0.34820000  0.63240000  0.12900000  1
  O  O354  1  0.35120000  0.07330000  0.19300000  1
  O  O355  1  0.35120000  0.57330000  0.30700000  1
  O  O356  1  0.35210000  0.47650000  0.39930000  1
  O  O357  1  0.35210000  0.97650000  0.10070000  1
  O  O358  1  0.36270000  0.03290000  0.64990000  1
  O  O359  1  0.36270000  0.53290000  0.85010000  1
  O  O360  1  0.37010000  0.19600000  0.89590000  1
  O  O361  1  0.37010000  0.69600000  0.60410000  1
  O  O362  1  0.37310000  0.28220000  0.43800000  1
  O  O363  1  0.37310000  0.78220000  0.06200000  1
  O  O364  1  0.44700000  0.17480000  0.40160000  1
  O  O365  1  0.44700000  0.67480000  0.09840000  1
  O  O366  1  0.44750000  0.28930000  0.83450000  1
  O  O367  1  0.44750000  0.78930000  0.66550000  1
  O  O368  1  0.45600000  0.07670000  0.15110000  1
  O  O369  1  0.45600000  0.57670000  0.34890000  1
  O  O370  1  0.46890000  0.06940000  0.62440000  1
  O  O371  1  0.46890000  0.56940000  0.87560000  1
  O  O372  1  0.51540000  0.11050000  0.85950000  1
  O  O373  1  0.51540000  0.61050000  0.64050000  1
  O  O374  1  0.51940000  0.29660000  0.52890000  1
  O  O375  1  0.51940000  0.79660000  0.97110000  1
  O  O376  1  0.53920000  0.24120000  0.46660000  1
  O  O377  1  0.53920000  0.74120000  0.03340000  1
  O  O378  1  0.53930000  0.19660000  0.85070000  1
  O  O379  1  0.53930000  0.69660000  0.64930000  1
  O  O380  1  0.67460000  0.36270000  0.91020000  1
  O  O381  1  0.67460000  0.86270000  0.58980000  1
  O  O382  1  0.67500000  0.19940000  0.29770000  1
  O  O383  1  0.67500000  0.69940000  0.20230000  1
  O  O384  1  0.69070000  0.15510000  0.22960000  1
  O  O385  1  0.69070000  0.65510000  0.27040000  1
  O  O386  1  0.69760000  0.44880000  0.90950000  1
  O  O387  1  0.69760000  0.94880000  0.59050000  1
  O  O388  1  0.74530000  0.49320000  0.63460000  1
  O  O389  1  0.74530000  0.99320000  0.86540000  1
  O  O390  1  0.75080000  0.38210000  0.60580000  1
  O  O391  1  0.75080000  0.88210000  0.89420000  1
  O  O392  1  0.76840000  0.25970000  0.36640000  1
  O  O393  1  0.76840000  0.75970000  0.13360000  1
  O  O394  1  0.77360000  0.26950000  0.91800000  1
  O  O395  1  0.77360000  0.76950000  0.58200000  1
  O  O396  1  0.84580000  0.40340000  0.55330000  1
  O  O397  1  0.84580000  0.90340000  0.94670000  1
  O  O398  1  0.84720000  0.16000000  0.31560000  1
  O  O399  1  0.84720000  0.66000000  0.18440000  1
  O  O400  1  0.84820000  0.36760000  0.87100000  1
  O  O401  1  0.84820000  0.86760000  0.62900000  1
  O  O402  1  0.85120000  0.42670000  0.69300000  1
  O  O403  1  0.85120000  0.92670000  0.80700000  1
  O  O404  1  0.85210000  0.02350000  0.89930000  1
  O  O405  1  0.85210000  0.52350000  0.60070000  1
  O  O406  1  0.86270000  0.46710000  0.14990000  1
  O  O407  1  0.86270000  0.96710000  0.35010000  1
  O  O408  1  0.87010000  0.30400000  0.39590000  1
  O  O409  1  0.87010000  0.80400000  0.10410000  1
  O  O410  1  0.87310000  0.21780000  0.93800000  1
  O  O411  1  0.87310000  0.71780000  0.56200000  1
  O  O412  1  0.94700000  0.32520000  0.90160000  1
  O  O413  1  0.94700000  0.82520000  0.59840000  1
  O  O414  1  0.94750000  0.21070000  0.33450000  1
  O  O415  1  0.94750000  0.71070000  0.16550000  1
  O  O416  1  0.95600000  0.42330000  0.65110000  1
  O  O417  1  0.95600000  0.92330000  0.84890000  1
  O  O418  1  0.96890000  0.43060000  0.12440000  1
  O  O419  1  0.96890000  0.93060000  0.37560000  1
