# generated using pymatgen
data_ZnH6(CN2)4
_symmetry_space_group_name_H-M   'P 1'
_cell_length_a   10.78680000
_cell_length_b   13.98060000
_cell_length_c   17.90660000
_cell_angle_alpha   111.60500000
_cell_angle_beta   90.00000000
_cell_angle_gamma   90.00000000
_symmetry_Int_Tables_number   1
_chemical_formula_structural   ZnH6(CN2)4
_chemical_formula_sum   'Zn8 H48 C32 N64'
_cell_volume   2510.70172202
_cell_formula_units_Z   8
loop_
 _symmetry_equiv_pos_site_id
 _symmetry_equiv_pos_as_xyz
  1  'x, y, z'
loop_
 _atom_site_type_symbol
 _atom_site_label
 _atom_site_symmetry_multiplicity
 _atom_site_fract_x
 _atom_site_fract_y
 _atom_site_fract_z
 _atom_site_occupancy
  Zn  Zn0  1  0.22189000  0.23058000  0.32369000  1
  Zn  Zn1  1  0.23305000  0.24075000  0.66947000  1
  Zn  Zn2  1  0.26695000  0.74075000  0.16947000  1
  Zn  Zn3  1  0.27811000  0.73058000  0.82369000  1
  Zn  Zn4  1  0.72189000  0.26942000  0.17631000  1
  Zn  Zn5  1  0.73305000  0.25925000  0.83053000  1
  Zn  Zn6  1  0.76695000  0.75925000  0.33053000  1
  Zn  Zn7  1  0.77811000  0.76942000  0.67631000  1
  H  H8  1  0.00760000  0.86720000  0.88570000  1
  H  H9  1  0.00830000  0.62630000  0.11670000  1
  H  H10  1  0.03110000  0.24640000  0.12160000  1
  H  H11  1  0.03580000  0.44030000  0.72960000  1
  H  H12  1  0.04750000  0.54520000  0.71360000  1
  H  H13  1  0.05450000  0.26440000  0.86800000  1
  H  H14  1  0.05600000  0.54690000  0.80330000  1
  H  H15  1  0.06980000  0.34300000  0.57340000  1
  H  H16  1  0.07640000  0.35220000  0.48700000  1
  H  H17  1  0.12540000  0.17780000  0.14960000  1
  H  H18  1  0.12670000  0.34880000  0.84380000  1
  H  H19  1  0.17150000  0.41560000  0.55610000  1
  H  H20  1  0.32850000  0.91560000  0.05610000  1
  H  H21  1  0.37330000  0.84880000  0.34380000  1
  H  H22  1  0.37460000  0.67780000  0.64960000  1
  H  H23  1  0.42360000  0.85220000  0.98700000  1
  H  H24  1  0.43020000  0.84300000  0.07340000  1
  H  H25  1  0.44400000  0.04690000  0.30330000  1
  H  H26  1  0.44550000  0.76440000  0.36800000  1
  H  H27  1  0.45250000  0.04520000  0.21360000  1
  H  H28  1  0.46420000  0.94030000  0.22960000  1
  H  H29  1  0.46890000  0.74640000  0.62160000  1
  H  H30  1  0.49170000  0.12630000  0.61670000  1
  H  H31  1  0.49240000  0.36720000  0.38570000  1
  H  H32  1  0.50760000  0.63280000  0.61430000  1
  H  H33  1  0.50830000  0.87370000  0.38330000  1
  H  H34  1  0.53110000  0.25360000  0.37840000  1
  H  H35  1  0.53580000  0.05970000  0.77040000  1
  H  H36  1  0.54750000  0.95480000  0.78640000  1
  H  H37  1  0.55450000  0.23560000  0.63200000  1
  H  H38  1  0.55600000  0.95310000  0.69670000  1
  H  H39  1  0.56980000  0.15700000  0.92660000  1
  H  H40  1  0.57640000  0.14780000  0.01300000  1
  H  H41  1  0.62540000  0.32220000  0.35040000  1
  H  H42  1  0.62670000  0.15120000  0.65620000  1
  H  H43  1  0.67150000  0.08440000  0.94390000  1
  H  H44  1  0.82850000  0.58440000  0.44390000  1
  H  H45  1  0.87330000  0.65120000  0.15620000  1
  H  H46  1  0.87460000  0.82220000  0.85040000  1
  H  H47  1  0.92360000  0.64780000  0.51300000  1
  H  H48  1  0.93020000  0.65700000  0.42660000  1
  H  H49  1  0.94400000  0.45310000  0.19670000  1
  H  H50  1  0.94550000  0.73560000  0.13200000  1
  H  H51  1  0.95250000  0.45480000  0.28640000  1
  H  H52  1  0.96420000  0.55970000  0.27040000  1
  H  H53  1  0.96890000  0.75360000  0.87840000  1
  H  H54  1  0.99170000  0.37370000  0.88330000  1
  H  H55  1  0.99240000  0.13280000  0.11430000  1
  C  C56  1  0.01163000  0.72201000  0.23381000  1
  C  C57  1  0.01541000  0.76272000  0.77104000  1
  C  C58  1  0.03791000  0.19495000  0.14658000  1
  C  C59  1  0.04512000  0.31977000  0.84720000  1
  C  C60  1  0.07642000  0.50764000  0.74692000  1
  C  C61  1  0.12533000  0.35102000  0.53276000  1
  C  C62  1  0.21344000  0.49327000  0.73823000  1
  C  C63  1  0.21381000  0.26321000  0.50511000  1
  C  C64  1  0.28619000  0.76321000  0.00511000  1
  C  C65  1  0.28656000  0.99327000  0.23823000  1
  C  C66  1  0.37467000  0.85102000  0.03276000  1
  C  C67  1  0.42358000  0.00764000  0.24692000  1
  C  C68  1  0.45488000  0.81977000  0.34720000  1
  C  C69  1  0.46209000  0.69495000  0.64658000  1
  C  C70  1  0.48459000  0.26272000  0.27104000  1
  C  C71  1  0.48837000  0.22201000  0.73381000  1
  C  C72  1  0.51163000  0.77799000  0.26619000  1
  C  C73  1  0.51541000  0.73728000  0.72896000  1
  C  C74  1  0.53791000  0.30505000  0.35342000  1
  C  C75  1  0.54512000  0.18023000  0.65280000  1
  C  C76  1  0.57642000  0.99236000  0.75308000  1
  C  C77  1  0.62533000  0.14898000  0.96724000  1
  C  C78  1  0.71344000  0.00673000  0.76177000  1
  C  C79  1  0.71381000  0.23679000  0.99489000  1
  C  C80  1  0.78619000  0.73679000  0.49489000  1
  C  C81  1  0.78656000  0.50673000  0.26177000  1
  C  C82  1  0.87467000  0.64898000  0.46724000  1
  C  C83  1  0.92358000  0.49236000  0.25308000  1
  C  C84  1  0.95488000  0.68023000  0.15280000  1
  C  C85  1  0.96209000  0.80505000  0.85342000  1
  C  C86  1  0.98459000  0.23728000  0.22896000  1
  C  C87  1  0.98837000  0.27799000  0.76619000  1
  N  N88  1  0.03612000  0.70212000  0.64189000  1
  N  N89  1  0.03620000  0.78449000  0.36218000  1
  N  N90  1  0.04799000  0.26096000  0.29759000  1
  N  N91  1  0.05019000  0.24890000  0.69698000  1
  N  N92  1  0.09125000  0.02462000  0.23707000  1
  N  N93  1  0.10592000  0.92532000  0.20614000  1
  N  N94  1  0.13265000  0.73603000  0.24828000  1
  N  N95  1  0.13464000  0.74068000  0.75424000  1
  N  N96  1  0.14526000  0.70283000  0.67287000  1
  N  N97  1  0.14553000  0.77547000  0.32935000  1
  N  N98  1  0.16143000  0.64137000  0.00387000  1
  N  N99  1  0.16576000  0.64150000  0.93158000  1
  N  N100  1  0.20379000  0.07015000  0.25834000  1
  N  N101  1  0.22871000  0.90285000  0.20635000  1
  N  N102  1  0.23703000  0.71730000  0.05183000  1
  N  N103  1  0.24404000  0.71732000  0.93029000  1
  N  N104  1  0.25596000  0.21732000  0.43029000  1
  N  N105  1  0.26297000  0.21730000  0.55183000  1
  N  N106  1  0.27129000  0.40285000  0.70635000  1
  N  N107  1  0.29621000  0.57015000  0.75834000  1
  N  N108  1  0.33424000  0.14150000  0.43158000  1
  N  N109  1  0.33857000  0.14137000  0.50387000  1
  N  N110  1  0.35447000  0.27547000  0.82935000  1
  N  N111  1  0.35474000  0.20283000  0.17287000  1
  N  N112  1  0.36536000  0.24068000  0.25424000  1
  N  N113  1  0.36735000  0.23603000  0.74828000  1
  N  N114  1  0.39408000  0.42532000  0.70614000  1
  N  N115  1  0.40875000  0.52462000  0.73707000  1
  N  N116  1  0.44981000  0.74890000  0.19698000  1
  N  N117  1  0.45201000  0.76096000  0.79759000  1
  N  N118  1  0.46380000  0.28449000  0.86218000  1
  N  N119  1  0.46388000  0.20212000  0.14189000  1
  N  N120  1  0.53612000  0.79788000  0.85811000  1
  N  N121  1  0.53620000  0.71551000  0.13782000  1
  N  N122  1  0.54799000  0.23904000  0.20241000  1
  N  N123  1  0.55019000  0.25110000  0.80302000  1
  N  N124  1  0.59125000  0.47538000  0.26293000  1
  N  N125  1  0.60592000  0.57468000  0.29386000  1
  N  N126  1  0.63265000  0.76397000  0.25172000  1
  N  N127  1  0.63464000  0.75932000  0.74576000  1
  N  N128  1  0.64526000  0.79717000  0.82713000  1
  N  N129  1  0.64553000  0.72453000  0.17065000  1
  N  N130  1  0.66143000  0.85863000  0.49613000  1
  N  N131  1  0.66576000  0.85850000  0.56842000  1
  N  N132  1  0.70379000  0.42985000  0.24166000  1
  N  N133  1  0.72871000  0.59715000  0.29365000  1
  N  N134  1  0.73703000  0.78270000  0.44817000  1
  N  N135  1  0.74404000  0.78268000  0.56971000  1
  N  N136  1  0.75596000  0.28268000  0.06971000  1
  N  N137  1  0.76297000  0.28270000  0.94817000  1
  N  N138  1  0.77129000  0.09715000  0.79365000  1
  N  N139  1  0.79621000  0.92985000  0.74166000  1
  N  N140  1  0.83424000  0.35850000  0.06842000  1
  N  N141  1  0.83857000  0.35863000  0.99613000  1
  N  N142  1  0.85447000  0.22453000  0.67065000  1
  N  N143  1  0.85474000  0.29717000  0.32713000  1
  N  N144  1  0.86536000  0.25932000  0.24576000  1
  N  N145  1  0.86735000  0.26397000  0.75172000  1
  N  N146  1  0.89408000  0.07468000  0.79386000  1
  N  N147  1  0.90875000  0.97538000  0.76293000  1
  N  N148  1  0.94981000  0.75110000  0.30302000  1
  N  N149  1  0.95201000  0.73904000  0.70241000  1
  N  N150  1  0.96380000  0.21551000  0.63782000  1
  N  N151  1  0.96388000  0.29788000  0.35811000  1
