# generated using pymatgen
data_NiH14C26N6(O2F)2
_symmetry_space_group_name_H-M   'P 1'
_cell_length_a   15.69800000
_cell_length_b   15.69800000
_cell_length_c   18.55700000
_cell_angle_alpha   90.00000000
_cell_angle_beta   90.00000000
_cell_angle_gamma   120.00000000
_symmetry_Int_Tables_number   1
_chemical_formula_structural   NiH14C26N6(O2F)2
_chemical_formula_sum   'Ni3 H42 C78 N18 O12 F6'
_cell_volume   3960.29054515
_cell_formula_units_Z   3
loop_
 _symmetry_equiv_pos_site_id
 _symmetry_equiv_pos_as_xyz
  1  'x, y, z'
loop_
 _atom_site_type_symbol
 _atom_site_label
 _atom_site_symmetry_multiplicity
 _atom_site_fract_x
 _atom_site_fract_y
 _atom_site_fract_z
 _atom_site_occupancy
  Ni  Ni0  1  1.00000000  0.82207000  0.16667000  1
  Ni  Ni1  1  0.82207000  0.00000000  0.83333000  1
  Ni  Ni2  1  0.17793000  0.17793000  0.50000000  1
  H  H3  1  0.99480000  0.89110000  0.31960000  1
  H  H4  1  0.95930000  0.45940000  0.72360000  1
  H  H5  1  0.95430000  0.10460000  0.08547000  1
  H  H6  1  0.93510000  0.64080000  0.07317000  1
  H  H7  1  0.93410000  0.49560000  0.07067000  1
  H  H8  1  0.89970000  0.29770000  0.98427000  1
  H  H9  1  0.89630000  0.00520000  0.98627000  1
  H  H10  1  0.89540000  0.84970000  0.41880000  1
  H  H11  1  0.89110000  0.99480000  0.68040000  1
  H  H12  1  0.84970000  0.89540000  0.58120000  1
  H  H13  1  0.84940000  0.19500000  0.88627000  1
  H  H14  1  0.80500000  0.65440000  0.21960000  1
  H  H15  1  0.70570000  0.06490000  0.73983000  1
  H  H16  1  0.70230000  0.60200000  0.31760000  1
  H  H17  1  0.65440000  0.80500000  0.78040000  1
  H  H18  1  0.64080000  0.93510000  0.92683000  1
  H  H19  1  0.60200000  0.70230000  0.68240000  1
  H  H20  1  0.56150000  0.06590000  0.73733000  1
  H  H21  1  0.54060000  0.49990000  0.05693000  1
  H  H22  1  0.50440000  0.43850000  0.40400000  1
  H  H23  1  0.50010000  0.04070000  0.39027000  1
  H  H24  1  0.49990000  0.54060000  0.94307000  1
  H  H25  1  0.49560000  0.93410000  0.92933000  1
  H  H26  1  0.45940000  0.95930000  0.27640000  1
  H  H27  1  0.43850000  0.50440000  0.59600000  1
  H  H28  1  0.39800000  0.10030000  0.65093000  1
  H  H29  1  0.35920000  0.29430000  0.40650000  1
  H  H30  1  0.34560000  0.15060000  0.55293000  1
  H  H31  1  0.29770000  0.89970000  0.01573000  1
  H  H32  1  0.29430000  0.35920000  0.59350000  1
  H  H33  1  0.19500000  0.84940000  0.11373000  1
  H  H34  1  0.15060000  0.34560000  0.44707000  1
  H  H35  1  0.15030000  0.04570000  0.75213000  1
  H  H36  1  0.10890000  0.10370000  0.65293000  1
  H  H37  1  0.10460000  0.95430000  0.91453000  1
  H  H38  1  0.10370000  0.10890000  0.34707000  1
  H  H39  1  0.10030000  0.39800000  0.34907000  1
  H  H40  1  0.06590000  0.56150000  0.26267000  1
  H  H41  1  0.06490000  0.70570000  0.26017000  1
  H  H42  1  0.04570000  0.15030000  0.24787000  1
  H  H43  1  0.04070000  0.50010000  0.60973000  1
  H  H44  1  0.00520000  0.89630000  0.01373000  1
  C  C45  1  1.00000000  0.51180000  0.16667000  1
  C  C46  1  0.98170000  0.26510000  0.70147000  1
  C  C47  1  0.97820000  0.41840000  0.70130000  1
  C  C48  1  0.96670000  0.27740000  0.11143000  1
  C  C49  1  0.96460000  0.33300000  0.73460000  1
  C  C50  1  0.96360000  0.17390000  0.74381000  1
  C  C51  1  0.96200000  0.62450000  0.11183000  1
  C  C52  1  0.96100000  0.53750000  0.10997000  1
  C  C53  1  0.93480000  0.83260000  0.31907000  1
  C  C54  1  0.93160000  0.12380000  0.04592000  1
  C  C55  1  0.93140000  0.21140000  0.04673000  1
  C  C56  1  0.90010000  0.23870000  0.98581000  1
  C  C57  1  0.89780000  0.06520000  0.98574000  1
  C  C58  1  0.87620000  0.80780000  0.37925000  1
  C  C59  1  0.86950000  0.17610000  0.92745000  1
  C  C60  1  0.83260000  0.93480000  0.68093000  1
  C  C61  1  0.82610000  0.78970000  0.07714000  1
  C  C62  1  0.82390000  0.69340000  0.26078000  1
  C  C63  1  0.80780000  0.87620000  0.62075000  1
  C  C64  1  0.78970000  0.82610000  0.92286000  1
  C  C65  1  0.78860000  0.72000000  0.38006000  1
  C  C66  1  0.76130000  0.66140000  0.31914000  1
  C  C67  1  0.73490000  0.71660000  0.03480000  1
  C  C68  1  0.72260000  0.68930000  0.44476000  1
  C  C69  1  0.72000000  0.78860000  0.61994000  1
  C  C70  1  0.71660000  0.73490000  0.96520000  1
  C  C71  1  0.69340000  0.82390000  0.73922000  1
  C  C72  1  0.68930000  0.72260000  0.55524000  1
  C  C73  1  0.66700000  0.63160000  0.06793000  1
  C  C74  1  0.66250000  0.03800000  0.77849000  1
  C  C75  1  0.66140000  0.76130000  0.68086000  1
  C  C76  1  0.63160000  0.66700000  0.93207000  1
  C  C77  1  0.62450000  0.96200000  0.88817000  1
  C  C78  1  0.58310000  0.58310000  0.50000000  1
  C  C79  1  0.58160000  0.55980000  0.03463000  1
  C  C80  1  0.57650000  0.03900000  0.77663000  1
  C  C81  1  0.55980000  0.58160000  0.96537000  1
  C  C82  1  0.53750000  0.96100000  0.89003000  1
  C  C83  1  0.51180000  0.00000000  0.83333000  1
  C  C84  1  0.48820000  0.48820000  0.50000000  1
  C  C85  1  0.46250000  0.42350000  0.44330000  1
  C  C86  1  0.44020000  0.02180000  0.36797000  1
  C  C87  1  0.42350000  0.46250000  0.55670000  1
  C  C88  1  0.41840000  0.97820000  0.29870000  1
  C  C89  1  0.41690000  1.00000000  0.83333000  1
  C  C90  1  0.37550000  0.33750000  0.44516000  1
  C  C91  1  0.36840000  0.03540000  0.40127000  1
  C  C92  1  0.33860000  0.09990000  0.65247000  1
  C  C93  1  0.33750000  0.37550000  0.55484000  1
  C  C94  1  0.33300000  0.96460000  0.26540000  1
  C  C95  1  0.31070000  0.03330000  0.77809000  1
  C  C96  1  0.30660000  0.13050000  0.59411000  1
  C  C97  1  0.28340000  0.01830000  0.36814000  1
  C  C98  1  0.28000000  0.06860000  0.71339000  1
  C  C99  1  0.27740000  0.96670000  0.88857000  1
  C  C100  1  0.26510000  0.98170000  0.29853000  1
  C  C101  1  0.23870000  0.90010000  0.01419000  1
  C  C102  1  0.21140000  0.93140000  0.95327000  1
  C  C103  1  0.21030000  0.03640000  0.41048000  1
  C  C104  1  0.19220000  0.06840000  0.71258000  1
  C  C105  1  0.17610000  0.86950000  0.07255000  1
  C  C106  1  0.17390000  0.96360000  0.25619000  1
  C  C107  1  0.16740000  0.10220000  0.65240000  1
  C  C108  1  0.13050000  0.30660000  0.40589000  1
  C  C109  1  0.12380000  0.93160000  0.95408000  1
  C  C110  1  0.10220000  0.16740000  0.34760000  1
  C  C111  1  0.09990000  0.33860000  0.34753000  1
  C  C112  1  0.06860000  0.28000000  0.28661000  1
  C  C113  1  0.06840000  0.19220000  0.28742000  1
  C  C114  1  0.06520000  0.89780000  0.01426000  1
  C  C115  1  0.03900000  0.57650000  0.22337000  1
  C  C116  1  0.03800000  0.66250000  0.22151000  1
  C  C117  1  0.03640000  0.21030000  0.58952000  1
  C  C118  1  0.03540000  0.36840000  0.59873000  1
  C  C119  1  0.03330000  0.31070000  0.22191000  1
  C  C120  1  0.02180000  0.44020000  0.63203000  1
  C  C121  1  0.01830000  0.28340000  0.63186000  1
  C  C122  1  1.00000000  0.41690000  0.16667000  1
  N  N123  1  1.00000000  0.24760000  0.16667000  1
  N  N124  1  1.00000000  0.68810000  0.16667000  1
  N  N125  1  0.96496000  0.36044000  0.10847000  1
  N  N126  1  0.91006000  0.77705000  0.25982000  1
  N  N127  1  0.86699000  0.08994000  0.92649000  1
  N  N128  1  0.77705000  0.91006000  0.74018000  1
  N  N129  1  0.75240000  0.75240000  0.50000000  1
  N  N130  1  0.68810000  1.00000000  0.83333000  1
  N  N131  1  0.63956000  0.60452000  0.44180000  1
  N  N132  1  0.60452000  0.63956000  0.55820000  1
  N  N133  1  0.39548000  0.03504000  0.77513000  1
  N  N134  1  0.36044000  0.96496000  0.89153000  1
  N  N135  1  0.31190000  0.31190000  0.50000000  1
  N  N136  1  0.24760000  0.00000000  0.83333000  1
  N  N137  1  0.22295000  0.13301000  0.59315000  1
  N  N138  1  0.13301000  0.22295000  0.40685000  1
  N  N139  1  0.08994000  0.86699000  0.07351000  1
  N  N140  1  0.03504000  0.39548000  0.22487000  1
  O  O141  1  0.96990000  0.12560000  0.58513000  1
  O  O142  1  0.87951000  0.12354000  0.76961000  1
  O  O143  1  0.87646000  0.75597000  0.10294000  1
  O  O144  1  0.87440000  0.84430000  0.91847000  1
  O  O145  1  0.84430000  0.87440000  0.08153000  1
  O  O146  1  0.75597000  0.87646000  0.89706000  1
  O  O147  1  0.24403000  0.12049000  0.43628000  1
  O  O148  1  0.15570000  0.03010000  0.25180000  1
  O  O149  1  0.12560000  0.96990000  0.41487000  1
  O  O150  1  0.12354000  0.87951000  0.23039000  1
  O  O151  1  0.12049000  0.24403000  0.56372000  1
  O  O152  1  0.03010000  0.15570000  0.74820000  1
  F  F153  1  0.93420000  0.32630000  0.80120000  1
  F  F154  1  0.67370000  0.60790000  0.13453000  1
  F  F155  1  0.60790000  0.67370000  0.86547000  1
  F  F156  1  0.39210000  0.06580000  0.46787000  1
  F  F157  1  0.32630000  0.93420000  0.19880000  1
  F  F158  1  0.06580000  0.39210000  0.53213000  1
