# generated using pymatgen
data_ZnH13C10N2O3
_symmetry_space_group_name_H-M   'P 1'
_cell_length_a   10.43500000
_cell_length_b   17.48070000
_cell_length_c   17.48070000
_cell_angle_alpha   120.00000000
_cell_angle_beta   90.00000000
_cell_angle_gamma   90.00000000
_symmetry_Int_Tables_number   1
_chemical_formula_structural   ZnH13C10N2O3
_chemical_formula_sum   'Zn6 H78 C60 N12 O18'
_cell_volume   2761.47251036
_cell_formula_units_Z   6
loop_
 _symmetry_equiv_pos_site_id
 _symmetry_equiv_pos_as_xyz
  1  'x, y, z'
loop_
 _atom_site_type_symbol
 _atom_site_label
 _atom_site_symmetry_multiplicity
 _atom_site_fract_x
 _atom_site_fract_y
 _atom_site_fract_z
 _atom_site_occupancy
  Zn  Zn0  1  0.07868000  0.53519000  0.07126000  1
  Zn  Zn1  1  0.24534000  0.46393000  0.53519000  1
  Zn  Zn2  1  0.41201000  0.92874000  0.46393000  1
  Zn  Zn3  1  0.57868000  0.46481000  0.92874000  1
  Zn  Zn4  1  0.74534000  0.53607000  0.46481000  1
  Zn  Zn5  1  0.91201000  0.07126000  0.53607000  1
  H  H6  1  0.00900000  0.91930000  0.44930000  1
  H  H7  1  0.01440000  0.75000000  0.42430000  1
  H  H8  1  0.02870000  0.97580000  0.35510000  1
  H  H9  1  0.03703000  0.22290000  0.53050000  1
  H  H10  1  0.03967000  0.56100000  0.67100000  1
  H  H11  1  0.04877000  0.62370000  0.95720000  1
  H  H12  1  0.06047000  0.26930000  0.70000000  1
  H  H13  1  0.06767000  0.36920000  0.72660000  1
  H  H14  1  0.09247000  0.34750000  0.92640000  1
  H  H15  1  0.11523000  0.49650000  0.31750000  1
  H  H16  1  0.14223000  0.62830000  0.47360000  1
  H  H17  1  0.15793000  0.79120000  0.60750000  1
  H  H18  1  0.16640000  0.83860000  0.32180000  1
  H  H19  1  0.17567000  0.47000000  0.91930000  1
  H  H20  1  0.18107000  0.32570000  0.75000000  1
  H  H21  1  0.19537000  0.62070000  0.97580000  1
  H  H22  1  0.20370000  0.69240000  0.22290000  1
  H  H23  1  0.20633000  0.89000000  0.56100000  1
  H  H24  1  0.21543000  0.66650000  0.62370000  1
  H  H25  1  0.22713000  0.56930000  0.26930000  1
  H  H26  1  0.23433000  0.64260000  0.36920000  1
  H  H27  1  0.25913000  0.42110000  0.34750000  1
  H  H28  1  0.28190000  0.17900000  0.49650000  1
  H  H29  1  0.30890000  0.15470000  0.62830000  1
  H  H30  1  0.32460000  0.18370000  0.79120000  1
  H  H31  1  0.33307000  0.51680000  0.83860000  1
  H  H32  1  0.34233000  0.55070000  0.47000000  1
  H  H33  1  0.34773000  0.57570000  0.32570000  1
  H  H34  1  0.36203000  0.64490000  0.62070000  1
  H  H35  1  0.37037000  0.46950000  0.69240000  1
  H  H36  1  0.37300000  0.32900000  0.89000000  1
  H  H37  1  0.38210000  0.04280000  0.66650000  1
  H  H38  1  0.39380000  0.30000000  0.56930000  1
  H  H39  1  0.40100000  0.27340000  0.64260000  1
  H  H40  1  0.42580000  0.07360000  0.42110000  1
  H  H41  1  0.44857000  0.68250000  0.17900000  1
  H  H42  1  0.47557000  0.52640000  0.15470000  1
  H  H43  1  0.49127000  0.39250000  0.18370000  1
  H  H44  1  0.49973000  0.67820000  0.51680000  1
  H  H45  1  0.50900000  0.08070000  0.55070000  1
  H  H46  1  0.51440000  0.25000000  0.57570000  1
  H  H47  1  0.52870000  0.02420000  0.64490000  1
  H  H48  1  0.53703000  0.77710000  0.46950000  1
  H  H49  1  0.53967000  0.43900000  0.32900000  1
  H  H50  1  0.54877000  0.37630000  0.04280000  1
  H  H51  1  0.56047000  0.73070000  0.30000000  1
  H  H52  1  0.56767000  0.63080000  0.27340000  1
  H  H53  1  0.59247000  0.65250000  0.07360000  1
  H  H54  1  0.61523000  0.50350000  0.68250000  1
  H  H55  1  0.64223000  0.37170000  0.52640000  1
  H  H56  1  0.65793000  0.20880000  0.39250000  1
  H  H57  1  0.66640000  0.16140000  0.67820000  1
  H  H58  1  0.67567000  0.53000000  0.08070000  1
  H  H59  1  0.68107000  0.67430000  0.25000000  1
  H  H60  1  0.69537000  0.37930000  0.02420000  1
  H  H61  1  0.70370000  0.30760000  0.77710000  1
  H  H62  1  0.70633000  0.11000000  0.43900000  1
  H  H63  1  0.71543000  0.33350000  0.37630000  1
  H  H64  1  0.72713000  0.43070000  0.73070000  1
  H  H65  1  0.73433000  0.35740000  0.63080000  1
  H  H66  1  0.75913000  0.57890000  0.65250000  1
  H  H67  1  0.78190000  0.82100000  0.50350000  1
  H  H68  1  0.80890000  0.84530000  0.37170000  1
  H  H69  1  0.82460000  0.81630000  0.20880000  1
  H  H70  1  0.83307000  0.48320000  0.16140000  1
  H  H71  1  0.84233000  0.44930000  0.53000000  1
  H  H72  1  0.84773000  0.42430000  0.67430000  1
  H  H73  1  0.86203000  0.35510000  0.37930000  1
  H  H74  1  0.87037000  0.53050000  0.30760000  1
  H  H75  1  0.87300000  0.67100000  0.11000000  1
  H  H76  1  0.88210000  0.95720000  0.33350000  1
  H  H77  1  0.89380000  0.70000000  0.43070000  1
  H  H78  1  0.90100000  0.72660000  0.35740000  1
  H  H79  1  0.92580000  0.92640000  0.57890000  1
  H  H80  1  0.94857000  0.31750000  0.82100000  1
  H  H81  1  0.97557000  0.47360000  0.84530000  1
  H  H82  1  0.99127000  0.60750000  0.81630000  1
  H  H83  1  0.99973000  0.32180000  0.48320000  1
  C  C84  1  0.02697000  0.35220000  0.83120000  1
  C  C85  1  0.04223000  0.52500000  0.46890000  1
  C  C86  1  0.06887000  0.57940000  0.79260000  1
  C  C87  1  0.08977000  0.32680000  0.74410000  1
  C  C88  1  0.09847000  0.55070000  0.70480000  1
  C  C89  1  0.10430000  0.80530000  0.28010000  1
  C  C90  1  0.12527000  0.58740000  0.93700000  1
  C  C91  1  0.12640000  0.71750000  0.22010000  1
  C  C92  1  0.15587000  0.56570000  0.84400000  1
  C  C93  1  0.16143000  0.56600000  0.45290000  1
  C  C94  1  0.19363000  0.52100000  0.35220000  1
  C  C95  1  0.20890000  0.05610000  0.52500000  1
  C  C96  1  0.23553000  0.78680000  0.57940000  1
  C  C97  1  0.25643000  0.58270000  0.32680000  1
  C  C98  1  0.26513000  0.84590000  0.55070000  1
  C  C99  1  0.27097000  0.52520000  0.80530000  1
  C  C100  1  0.29193000  0.65040000  0.58740000  1
  C  C101  1  0.29307000  0.49740000  0.71750000  1
  C  C102  1  0.32253000  0.72170000  0.56570000  1
  C  C103  1  0.32810000  0.11310000  0.56600000  1
  C  C104  1  0.36030000  0.16880000  0.52100000  1
  C  C105  1  0.37557000  0.53110000  0.05610000  1
  C  C106  1  0.40220000  0.20740000  0.78680000  1
  C  C107  1  0.42310000  0.25590000  0.58270000  1
  C  C108  1  0.43180000  0.29520000  0.84590000  1
  C  C109  1  0.43763000  0.71990000  0.52520000  1
  C  C110  1  0.45860000  0.06300000  0.65040000  1
  C  C111  1  0.45973000  0.77990000  0.49740000  1
  C  C112  1  0.48920000  0.15600000  0.72170000  1
  C  C113  1  0.49477000  0.54710000  0.11310000  1
  C  C114  1  0.52697000  0.64780000  0.16880000  1
  C  C115  1  0.54223000  0.47500000  0.53110000  1
  C  C116  1  0.56887000  0.42060000  0.20740000  1
  C  C117  1  0.58977000  0.67320000  0.25590000  1
  C  C118  1  0.59847000  0.44930000  0.29520000  1
  C  C119  1  0.60430000  0.19470000  0.71990000  1
  C  C120  1  0.62527000  0.41260000  0.06300000  1
  C  C121  1  0.62640000  0.28250000  0.77990000  1
  C  C122  1  0.65587000  0.43430000  0.15600000  1
  C  C123  1  0.66143000  0.43400000  0.54710000  1
  C  C124  1  0.69363000  0.47900000  0.64780000  1
  C  C125  1  0.70890000  0.94390000  0.47500000  1
  C  C126  1  0.73553000  0.21320000  0.42060000  1
  C  C127  1  0.75643000  0.41730000  0.67320000  1
  C  C128  1  0.76513000  0.15410000  0.44930000  1
  C  C129  1  0.77097000  0.47480000  0.19470000  1
  C  C130  1  0.79193000  0.34960000  0.41260000  1
  C  C131  1  0.79307000  0.50260000  0.28250000  1
  C  C132  1  0.82253000  0.27830000  0.43430000  1
  C  C133  1  0.82810000  0.88690000  0.43400000  1
  C  C134  1  0.86030000  0.83120000  0.47900000  1
  C  C135  1  0.87557000  0.46890000  0.94390000  1
  C  C136  1  0.90220000  0.79260000  0.21320000  1
  C  C137  1  0.92310000  0.74410000  0.41730000  1
  C  C138  1  0.93180000  0.70480000  0.15410000  1
  C  C139  1  0.93763000  0.28010000  0.47480000  1
  C  C140  1  0.95860000  0.93700000  0.34960000  1
  C  C141  1  0.95973000  0.22010000  0.50260000  1
  C  C142  1  0.98920000  0.84400000  0.27830000  1
  C  C143  1  0.99477000  0.45290000  0.88690000  1
  N  N144  1  0.04100000  0.66650000  0.15770000  1
  N  N145  1  0.10417000  0.50400000  0.94060000  1
  N  N146  1  0.20767000  0.50880000  0.66650000  1
  N  N147  1  0.27083000  0.56340000  0.50400000  1
  N  N148  1  0.37433000  0.84230000  0.50880000  1
  N  N149  1  0.43750000  0.05940000  0.56340000  1
  N  N150  1  0.54100000  0.33350000  0.84230000  1
  N  N151  1  0.60417000  0.49600000  0.05940000  1
  N  N152  1  0.70767000  0.49120000  0.33350000  1
  N  N153  1  0.77083000  0.43660000  0.49600000  1
  N  N154  1  0.87433000  0.15770000  0.49120000  1
  N  N155  1  0.93750000  0.94060000  0.43660000  1
  O  O156  1  0.05243000  0.48360000  0.50950000  1
  O  O157  1  0.10690000  0.09900000  0.53850000  1
  O  O158  1  0.11647000  0.32930000  0.87540000  1
  O  O159  1  0.21910000  0.97410000  0.48360000  1
  O  O160  1  0.27357000  0.56050000  0.09900000  1
  O  O161  1  0.28313000  0.45390000  0.32930000  1
  O  O162  1  0.38577000  0.49050000  0.97410000  1
  O  O163  1  0.44023000  0.46150000  0.56050000  1
  O  O164  1  0.44980000  0.12460000  0.45390000  1
  O  O165  1  0.55243000  0.51640000  0.49050000  1
  O  O166  1  0.60690000  0.90100000  0.46150000  1
  O  O167  1  0.61647000  0.67070000  0.12460000  1
  O  O168  1  0.71910000  0.02590000  0.51640000  1
  O  O169  1  0.77357000  0.43950000  0.90100000  1
  O  O170  1  0.78313000  0.54610000  0.67070000  1
  O  O171  1  0.88577000  0.50950000  0.02590000  1
  O  O172  1  0.94023000  0.53850000  0.43950000  1
  O  O173  1  0.94980000  0.87540000  0.54610000  1
