# generated using pymatgen
data_Pr2Cu2H5(C5O4)5
_symmetry_space_group_name_H-M   'P 1'
_cell_length_a   10.95300000
_cell_length_b   19.81100000
_cell_length_c   23.05600000
_cell_angle_alpha   90.00000000
_cell_angle_beta   90.00000000
_cell_angle_gamma   99.88000000
_symmetry_Int_Tables_number   1
_chemical_formula_structural   Pr2Cu2H5(C5O4)5
_chemical_formula_sum   'Pr8 Cu8 H20 C100 O80'
_cell_volume   4928.72185897
_cell_formula_units_Z   4
loop_
 _symmetry_equiv_pos_site_id
 _symmetry_equiv_pos_as_xyz
  1  'x, y, z'
loop_
 _atom_site_type_symbol
 _atom_site_label
 _atom_site_symmetry_multiplicity
 _atom_site_fract_x
 _atom_site_fract_y
 _atom_site_fract_z
 _atom_site_occupancy
  Pr  Pr0  1  0.03935000  0.90019000  0.35385000  1
  Pr  Pr1  1  0.14892000  0.85230000  0.85488000  1
  Pr  Pr2  1  0.35108000  0.64770000  0.35488000  1
  Pr  Pr3  1  0.46065000  0.59981000  0.85385000  1
  Pr  Pr4  1  0.53935000  0.40019000  0.14615000  1
  Pr  Pr5  1  0.64892000  0.35230000  0.64512000  1
  Pr  Pr6  1  0.85108000  0.14770000  0.14512000  1
  Pr  Pr7  1  0.96065000  0.09981000  0.64615000  1
  Cu  Cu8  1  0.08994000  0.89995000  0.17742000  1
  Cu  Cu9  1  0.19739000  0.84747000  0.67830000  1
  Cu  Cu10  1  0.30261000  0.65253000  0.17830000  1
  Cu  Cu11  1  0.41006000  0.60005000  0.67742000  1
  Cu  Cu12  1  0.58994000  0.39995000  0.32258000  1
  Cu  Cu13  1  0.69739000  0.34747000  0.82170000  1
  Cu  Cu14  1  0.80261000  0.15253000  0.32170000  1
  Cu  Cu15  1  0.91006000  0.10005000  0.82258000  1
  H  H16  1  0.01720000  0.49280000  0.30480000  1
  H  H17  1  0.08210000  0.45900000  0.08280000  1
  H  H18  1  0.10890000  0.30840000  0.20050000  1
  H  H19  1  0.12250000  0.44170000  0.80440000  1
  H  H20  1  0.22800000  0.25600000  0.70580000  1
  H  H21  1  0.27200000  0.24400000  0.20580000  1
  H  H22  1  0.37750000  0.05830000  0.30440000  1
  H  H23  1  0.39110000  0.19160000  0.70050000  1
  H  H24  1  0.41790000  0.04100000  0.58280000  1
  H  H25  1  0.48280000  0.00720000  0.80480000  1
  H  H26  1  0.51720000  0.99280000  0.19520000  1
  H  H27  1  0.58210000  0.95900000  0.41720000  1
  H  H28  1  0.60890000  0.80840000  0.29950000  1
  H  H29  1  0.62250000  0.94170000  0.69560000  1
  H  H30  1  0.72800000  0.75600000  0.79420000  1
  H  H31  1  0.77200000  0.74400000  0.29420000  1
  H  H32  1  0.87750000  0.55830000  0.19560000  1
  H  H33  1  0.89110000  0.69160000  0.79950000  1
  H  H34  1  0.91790000  0.54100000  0.91720000  1
  H  H35  1  0.98280000  0.50720000  0.69520000  1
  C  C36  1  0.00860000  0.66410000  0.74030000  1
  C  C37  1  0.03580000  0.21220000  0.77110000  1
  C  C38  1  0.03650000  0.45560000  0.28430000  1
  C  C39  1  0.03680000  0.60850000  0.70890000  1
  C  C40  1  0.04490000  0.66580000  0.17340000  1
  C  C41  1  0.04920000  0.47540000  0.04950000  1
  C  C42  1  0.07260000  0.33970000  0.79180000  1
  C  C43  1  0.07790000  0.73580000  0.73080000  1
  C  C44  1  0.07800000  0.52360000  0.95350000  1
  C  C45  1  0.09170000  0.34530000  0.22200000  1
  C  C46  1  0.09890000  0.13760000  0.18780000  1
  C  C47  1  0.10440000  0.28330000  0.76230000  1
  C  C48  1  0.12680000  0.49850000  0.00370000  1
  C  C49  1  0.13890000  0.46530000  0.24710000  1
  C  C50  1  0.14420000  0.40430000  0.78500000  1
  C  C51  1  0.15050000  0.61180000  0.67120000  1
  C  C52  1  0.15840000  0.55290000  0.90420000  1
  C  C53  1  0.16680000  0.40890000  0.21590000  1
  C  C54  1  0.18310000  0.01490000  0.23980000  1
  C  C55  1  0.20770000  0.29310000  0.72610000  1
  C  C56  1  0.20830000  0.53640000  0.23910000  1
  C  C57  1  0.21270000  0.08580000  0.68300000  1
  C  C58  1  0.21920000  0.14310000  0.21980000  1
  C  C59  1  0.23890000  0.00820000  0.50980000  1
  C  C60  1  0.24820000  0.41350000  0.74920000  1
  C  C61  1  0.25180000  0.08650000  0.24920000  1
  C  C62  1  0.26110000  0.49180000  0.00980000  1
  C  C63  1  0.28080000  0.35690000  0.71980000  1
  C  C64  1  0.28730000  0.41420000  0.18300000  1
  C  C65  1  0.29170000  0.96360000  0.73910000  1
  C  C66  1  0.29230000  0.20690000  0.22610000  1
  C  C67  1  0.31690000  0.48510000  0.73980000  1
  C  C68  1  0.33320000  0.09110000  0.71590000  1
  C  C69  1  0.34160000  0.94710000  0.40420000  1
  C  C70  1  0.34950000  0.88820000  0.17120000  1
  C  C71  1  0.35580000  0.09570000  0.28500000  1
  C  C72  1  0.36110000  0.03470000  0.74710000  1
  C  C73  1  0.37320000  0.00150000  0.50370000  1
  C  C74  1  0.39560000  0.21670000  0.26230000  1
  C  C75  1  0.40110000  0.36240000  0.68780000  1
  C  C76  1  0.40830000  0.15470000  0.72200000  1
  C  C77  1  0.42200000  0.97640000  0.45350000  1
  C  C78  1  0.42210000  0.76420000  0.23080000  1
  C  C79  1  0.42740000  0.16030000  0.29180000  1
  C  C80  1  0.45080000  0.02460000  0.54950000  1
  C  C81  1  0.45510000  0.83420000  0.67340000  1
  C  C82  1  0.46320000  0.89150000  0.20890000  1
  C  C83  1  0.46350000  0.04440000  0.78430000  1
  C  C84  1  0.46420000  0.28780000  0.27110000  1
  C  C85  1  0.49140000  0.83590000  0.24030000  1
  C  C86  1  0.50860000  0.16410000  0.75970000  1
  C  C87  1  0.53580000  0.71220000  0.72890000  1
  C  C88  1  0.53650000  0.95560000  0.21570000  1
  C  C89  1  0.53680000  0.10850000  0.79110000  1
  C  C90  1  0.54490000  0.16580000  0.32660000  1
  C  C91  1  0.54920000  0.97540000  0.45050000  1
  C  C92  1  0.57260000  0.83970000  0.70820000  1
  C  C93  1  0.57790000  0.23580000  0.76920000  1
  C  C94  1  0.57800000  0.02360000  0.54650000  1
  C  C95  1  0.59170000  0.84530000  0.27800000  1
  C  C96  1  0.59890000  0.63760000  0.31220000  1
  C  C97  1  0.60440000  0.78330000  0.73770000  1
  C  C98  1  0.62680000  0.99850000  0.49630000  1
  C  C99  1  0.63890000  0.96530000  0.25290000  1
  C  C100  1  0.64420000  0.90430000  0.71500000  1
  C  C101  1  0.65050000  0.11180000  0.82880000  1
  C  C102  1  0.65840000  0.05290000  0.59580000  1
  C  C103  1  0.66680000  0.90890000  0.28410000  1
  C  C104  1  0.68310000  0.51490000  0.26020000  1
  C  C105  1  0.70770000  0.79310000  0.77390000  1
  C  C106  1  0.70830000  0.03640000  0.26090000  1
  C  C107  1  0.71270000  0.58580000  0.81700000  1
  C  C108  1  0.71920000  0.64310000  0.28020000  1
  C  C109  1  0.73890000  0.50820000  0.99020000  1
  C  C110  1  0.74820000  0.91350000  0.75080000  1
  C  C111  1  0.75180000  0.58650000  0.25080000  1
  C  C112  1  0.76110000  0.99180000  0.49020000  1
  C  C113  1  0.78080000  0.85690000  0.78020000  1
  C  C114  1  0.78730000  0.91420000  0.31700000  1
  C  C115  1  0.79170000  0.46360000  0.76090000  1
  C  C116  1  0.79230000  0.70690000  0.27390000  1
  C  C117  1  0.81690000  0.98510000  0.76020000  1
  C  C118  1  0.83320000  0.59110000  0.78410000  1
  C  C119  1  0.84160000  0.44710000  0.09580000  1
  C  C120  1  0.84950000  0.38820000  0.32880000  1
  C  C121  1  0.85580000  0.59570000  0.21500000  1
  C  C122  1  0.86110000  0.53470000  0.75290000  1
  C  C123  1  0.87320000  0.50150000  0.99630000  1
  C  C124  1  0.89560000  0.71670000  0.23770000  1
  C  C125  1  0.90110000  0.86240000  0.81220000  1
  C  C126  1  0.90830000  0.65470000  0.77800000  1
  C  C127  1  0.92200000  0.47640000  0.04650000  1
  C  C128  1  0.92210000  0.26420000  0.26920000  1
  C  C129  1  0.92740000  0.66030000  0.20820000  1
  C  C130  1  0.95080000  0.52460000  0.95050000  1
  C  C131  1  0.95510000  0.33420000  0.82660000  1
  C  C132  1  0.96320000  0.39150000  0.29110000  1
  C  C133  1  0.96350000  0.54440000  0.71570000  1
  C  C134  1  0.96420000  0.78780000  0.22890000  1
  C  C135  1  0.99140000  0.33590000  0.25970000  1
  O  O136  1  0.00550000  0.09869000  0.20872000  1
  O  O137  1  0.00570000  0.80408000  0.17878000  1
  O  O138  1  0.02710000  0.17187000  0.72899000  1
  O  O139  1  0.03780000  0.65180000  0.12111000  1
  O  O140  1  0.09060000  0.77667000  0.77233000  1
  O  O141  1  0.09090000  0.17390000  0.14409000  1
  O  O142  1  0.10520000  0.57040000  0.86060000  1
  O  O143  1  0.11440000  0.75179000  0.67996000  1
  O  O144  1  0.11870000  0.04757000  0.70447000  1
  O  O145  1  0.13860000  0.59160000  0.62070000  1
  O  O146  1  0.14390000  0.68006000  0.20242000  1
  O  O147  1  0.14620000  0.97913000  0.28262000  1
  O  O148  1  0.17000000  0.96230000  0.53949000  1
  O  O149  1  0.17250000  0.99504000  0.18757000  1
  O  O150  1  0.20200000  0.05890000  0.48813000  1
  O  O151  1  0.20490000  0.12140000  0.63868000  1
  O  O152  1  0.22460000  0.55720000  0.18756000  1
  O  O153  1  0.22590000  0.94100000  0.40980000  1
  O  O154  1  0.23980000  0.57177000  0.28346000  1
  O  O155  1  0.24730000  0.86812000  0.19603000  1
  O  O156  1  0.25270000  0.63188000  0.69603000  1
  O  O157  1  0.26020000  0.92823000  0.78346000  1
  O  O158  1  0.27410000  0.55900000  0.90980000  1
  O  O159  1  0.27540000  0.94280000  0.68756000  1
  O  O160  1  0.29510000  0.37860000  0.13868000  1
  O  O161  1  0.29800000  0.44110000  0.98813000  1
  O  O162  1  0.32750000  0.50496000  0.68757000  1
  O  O163  1  0.33000000  0.53770000  0.03949000  1
  O  O164  1  0.35380000  0.52087000  0.78262000  1
  O  O165  1  0.35610000  0.81994000  0.70242000  1
  O  O166  1  0.36140000  0.90840000  0.12070000  1
  O  O167  1  0.38130000  0.45243000  0.20447000  1
  O  O168  1  0.38560000  0.74821000  0.17996000  1
  O  O169  1  0.39480000  0.92960000  0.36060000  1
  O  O170  1  0.40910000  0.32610000  0.64409000  1
  O  O171  1  0.40940000  0.72333000  0.27233000  1
  O  O172  1  0.46220000  0.84820000  0.62111000  1
  O  O173  1  0.47290000  0.32813000  0.22899000  1
  O  O174  1  0.49430000  0.69592000  0.67878000  1
  O  O175  1  0.49450000  0.40131000  0.70872000  1
  O  O176  1  0.50550000  0.59869000  0.29128000  1
  O  O177  1  0.50570000  0.30408000  0.32122000  1
  O  O178  1  0.52710000  0.67187000  0.77101000  1
  O  O179  1  0.53780000  0.15180000  0.37889000  1
  O  O180  1  0.59060000  0.27667000  0.72767000  1
  O  O181  1  0.59090000  0.67390000  0.35591000  1
  O  O182  1  0.60520000  0.07040000  0.63940000  1
  O  O183  1  0.61440000  0.25179000  0.82004000  1
  O  O184  1  0.61870000  0.54757000  0.79553000  1
  O  O185  1  0.63860000  0.09160000  0.87930000  1
  O  O186  1  0.64390000  0.18006000  0.29758000  1
  O  O187  1  0.64620000  0.47913000  0.21738000  1
  O  O188  1  0.67000000  0.46230000  0.96051000  1
  O  O189  1  0.67250000  0.49504000  0.31243000  1
  O  O190  1  0.70200000  0.55890000  0.01187000  1
  O  O191  1  0.70490000  0.62140000  0.86132000  1
  O  O192  1  0.72460000  0.05720000  0.31244000  1
  O  O193  1  0.72590000  0.44100000  0.09020000  1
  O  O194  1  0.73980000  0.07177000  0.21654000  1
  O  O195  1  0.74730000  0.36812000  0.30397000  1
  O  O196  1  0.75270000  0.13188000  0.80397000  1
  O  O197  1  0.76020000  0.42823000  0.71654000  1
  O  O198  1  0.77410000  0.05900000  0.59020000  1
  O  O199  1  0.77540000  0.44280000  0.81244000  1
  O  O200  1  0.79510000  0.87860000  0.36132000  1
  O  O201  1  0.79800000  0.94110000  0.51187000  1
  O  O202  1  0.82750000  0.00496000  0.81243000  1
  O  O203  1  0.83000000  0.03770000  0.46051000  1
  O  O204  1  0.85380000  0.02087000  0.71738000  1
  O  O205  1  0.85610000  0.31994000  0.79758000  1
  O  O206  1  0.86140000  0.40840000  0.37930000  1
  O  O207  1  0.88130000  0.95243000  0.29553000  1
  O  O208  1  0.88560000  0.24821000  0.32004000  1
  O  O209  1  0.89480000  0.42960000  0.13940000  1
  O  O210  1  0.90910000  0.82610000  0.85591000  1
  O  O211  1  0.90940000  0.22333000  0.22767000  1
  O  O212  1  0.96220000  0.34820000  0.87889000  1
  O  O213  1  0.97290000  0.82813000  0.27101000  1
  O  O214  1  0.99430000  0.19592000  0.82122000  1
  O  O215  1  0.99450000  0.90131000  0.79128000  1
