# generated using pymatgen
data_CoCuH8C12(N2O)4
_symmetry_space_group_name_H-M   'P 1'
_cell_length_a   9.27138912
_cell_length_b   9.27138912
_cell_length_c   10.52600000
_cell_angle_alpha   99.93112598
_cell_angle_beta   99.93112598
_cell_angle_gamma   92.11073890
_symmetry_Int_Tables_number   1
_chemical_formula_structural   CoCuH8C12(N2O)4
_chemical_formula_sum   'Co2 Cu2 H16 C24 N16 O8'
_cell_volume   875.81945355
_cell_formula_units_Z   2
loop_
 _symmetry_equiv_pos_site_id
 _symmetry_equiv_pos_as_xyz
  1  'x, y, z'
loop_
 _atom_site_type_symbol
 _atom_site_label
 _atom_site_symmetry_multiplicity
 _atom_site_fract_x
 _atom_site_fract_y
 _atom_site_fract_z
 _atom_site_occupancy
  C  C0  1  0.52230000  0.20690000  0.19700000  1
  C  C1  1  0.20690000  0.52230000  0.69700000  1
  C  C2  1  0.82070000  0.90450000  0.68370000  1
  C  C3  1  0.90450000  0.82070000  0.18370000  1
  C  C4  1  0.57980000  0.03500000  0.32340000  1
  C  C5  1  0.03500000  0.57980000  0.82340000  1
  C  C6  1  0.37690000  0.19930000  0.21240000  1
  C  C7  1  0.19930000  0.37690000  0.71240000  1
  C  C8  1  0.66700000  0.89460000  0.71250000  1
  C  C9  1  0.89460000  0.66700000  0.21250000  1
  C  C10  1  0.56260000  0.98040000  0.65840000  1
  C  C11  1  0.98040000  0.56260000  0.15840000  1
  C  C12  1  0.43740000  0.01960000  0.34160000  1
  C  C13  1  0.01960000  0.43740000  0.84160000  1
  C  C14  1  0.33300000  0.10540000  0.28750000  1
  C  C15  1  0.10540000  0.33300000  0.78750000  1
  C  C16  1  0.62310000  0.80070000  0.78760000  1
  C  C17  1  0.80070000  0.62310000  0.28760000  1
  C  C18  1  0.42020000  0.96500000  0.67660000  1
  C  C19  1  0.96500000  0.42020000  0.17660000  1
  C  C20  1  0.17930000  0.09550000  0.31630000  1
  C  C21  1  0.09550000  0.17930000  0.81630000  1
  C  C22  1  0.47770000  0.79310000  0.80300000  1
  C  C23  1  0.79310000  0.47770000  0.30300000  1
  Co  Co24  1  0.85321000  0.14679000  0.25000000  1
  Co  Co25  1  0.14679000  0.85321000  0.75000000  1
  Cu  Cu26  1  0.00000000  0.00000000  0.00000000  1
  Cu  Cu27  1  0.00000000  0.00000000  0.50000000  1
  H  H28  1  0.54960000  0.26880000  0.14320000  1
  H  H29  1  0.26880000  0.54960000  0.64320000  1
  H  H30  1  0.58900000  0.04840000  0.60960000  1
  H  H31  1  0.04840000  0.58900000  0.10960000  1
  H  H32  1  0.64840000  0.97620000  0.36030000  1
  H  H33  1  0.97620000  0.64840000  0.86030000  1
  H  H34  1  0.31000000  0.25740000  0.17220000  1
  H  H35  1  0.25740000  0.31000000  0.67220000  1
  H  H36  1  0.69000000  0.74260000  0.82780000  1
  H  H37  1  0.74260000  0.69000000  0.32780000  1
  H  H38  1  0.35160000  0.02380000  0.63970000  1
  H  H39  1  0.02380000  0.35160000  0.13970000  1
  H  H40  1  0.41100000  0.95160000  0.39040000  1
  H  H41  1  0.95160000  0.41100000  0.89040000  1
  H  H42  1  0.45040000  0.73120000  0.85680000  1
  H  H43  1  0.73120000  0.45040000  0.35680000  1
  N  N44  1  0.69250000  0.24510000  0.91560000  1
  N  N45  1  0.24510000  0.69250000  0.41560000  1
  N  N46  1  0.75480000  0.17080000  0.97790000  1
  N  N47  1  0.17080000  0.75480000  0.47790000  1
  N  N48  1  0.82070000  0.09190000  0.04390000  1
  N  N49  1  0.09190000  0.82070000  0.54390000  1
  N  N50  1  0.62390000  0.13150000  0.25420000  1
  N  N51  1  0.13150000  0.62390000  0.75420000  1
  N  N52  1  0.37610000  0.86850000  0.74580000  1
  N  N53  1  0.86850000  0.37610000  0.24580000  1
  N  N54  1  0.17930000  0.90810000  0.95610000  1
  N  N55  1  0.90810000  0.17930000  0.45610000  1
  N  N56  1  0.24520000  0.82920000  0.02210000  1
  N  N57  1  0.82920000  0.24520000  0.52210000  1
  N  N58  1  0.30750000  0.75490000  0.08440000  1
  N  N59  1  0.75490000  0.30750000  0.58440000  1
  O  O60  1  0.83340000  0.95800000  0.58350000  1
  O  O61  1  0.95800000  0.83340000  0.08350000  1
  O  O62  1  0.85970000  0.92150000  0.26060000  1
  O  O63  1  0.92150000  0.85970000  0.76060000  1
  O  O64  1  0.14030000  0.07850000  0.73940000  1
  O  O65  1  0.07850000  0.14030000  0.23940000  1
  O  O66  1  0.16660000  0.04200000  0.41650000  1
  O  O67  1  0.04200000  0.16660000  0.91650000  1
