# generated using pymatgen
data_EuH11(C7O2)3
_symmetry_space_group_name_H-M   'P 1'
_cell_length_a   13.31700000
_cell_length_b   14.22000000
_cell_length_c   17.80212690
_cell_angle_alpha   100.87614290
_cell_angle_beta   111.96427114
_cell_angle_gamma   90.00000000
_symmetry_Int_Tables_number   1
_chemical_formula_structural   EuH11(C7O2)3
_chemical_formula_sum   'Eu4 H44 C84 O24'
_cell_volume   3061.07004323
_cell_formula_units_Z   4
loop_
 _symmetry_equiv_pos_site_id
 _symmetry_equiv_pos_as_xyz
  1  'x, y, z'
loop_
 _atom_site_type_symbol
 _atom_site_label
 _atom_site_symmetry_multiplicity
 _atom_site_fract_x
 _atom_site_fract_y
 _atom_site_fract_z
 _atom_site_occupancy
  C  C0  1  0.18240000  0.10100000  0.00860000  1
  C  C1  1  0.82620000  0.60100000  0.00860000  1
  C  C2  1  0.28310000  0.07860000  0.02560000  1
  C  C3  1  0.74250000  0.57860000  0.02560000  1
  C  C4  1  0.14260000  0.09740000  0.06720000  1
  C  C5  1  0.92460000  0.59740000  0.06720000  1
  C  C6  1  0.18610000  0.37090000  0.07020000  1
  C  C7  1  0.88410000  0.87090000  0.07020000  1
  C  C8  1  0.35070000  0.04880000  0.09900000  1
  C  C9  1  0.74830000  0.54880000  0.09900000  1
  C  C10  1  0.10680000  0.37980000  0.10160000  1
  C  C11  1  0.99480000  0.87980000  0.10160000  1
  C  C12  1  0.28580000  0.33940000  0.11840000  1
  C  C13  1  0.83260000  0.83940000  0.11840000  1
  C  C14  1  0.19850000  0.06540000  0.13940000  1
  C  C15  1  0.94090000  0.56540000  0.13940000  1
  C  C16  1  0.30420000  0.04050000  0.15620000  1
  C  C17  1  0.85200000  0.54050000  0.15620000  1
  C  C18  1  0.12390000  0.36180000  0.17880000  1
  C  C19  1  0.05490000  0.86180000  0.17880000  1
  C  C20  1  0.29910000  0.31860000  0.19340000  1
  C  C21  1  0.89430000  0.81860000  0.19340000  1
  C  C22  1  0.21990000  0.33070000  0.22620000  1
  C  C23  1  0.00630000  0.83070000  0.22620000  1
  C  C24  1  0.36630000  0.00390000  0.23360000  1
  C  C25  1  0.86730000  0.50390000  0.23360000  1
  C  C26  1  0.24200000  0.31730000  0.31120000  1
  C  C27  1  0.06920000  0.81730000  0.31120000  1
  C  C28  1  0.31290000  0.25000000  0.34440000  1
  C  C29  1  0.03150000  0.75000000  0.34440000  1
  C  C30  1  0.19470000  0.37230000  0.36000000  1
  C  C31  1  0.16530000  0.87230000  0.36000000  1
  C  C32  1  0.33460000  0.23960000  0.42420000  1
  C  C33  1  0.08960000  0.73960000  0.42420000  1
  C  C34  1  0.22290000  0.36540000  0.44180000  1
  C  C35  1  0.21890000  0.86540000  0.44180000  1
  C  C36  1  0.41370000  0.16440000  0.45880000  1
  C  C37  1  0.04510000  0.66440000  0.45880000  1
  C  C38  1  0.29470000  0.29860000  0.47340000  1
  C  C39  1  0.17870000  0.79860000  0.47340000  1
  C  C40  1  0.31790000  0.92850000  0.49400000  1
  C  C41  1  0.17610000  0.42850000  0.49400000  1
  C  C42  1  0.68210000  0.07150000  0.50600000  1
  C  C43  1  0.82390000  0.57150000  0.50600000  1
  C  C44  1  0.70530000  0.70140000  0.52660000  1
  C  C45  1  0.82130000  0.20140000  0.52660000  1
  C  C46  1  0.58630000  0.83560000  0.54120000  1
  C  C47  1  0.95490000  0.33560000  0.54120000  1
  C  C48  1  0.77710000  0.63460000  0.55820000  1
  C  C49  1  0.78110000  0.13460000  0.55820000  1
  C  C50  1  0.66540000  0.76040000  0.57580000  1
  C  C51  1  0.91040000  0.26040000  0.57580000  1
  C  C52  1  0.80530000  0.62770000  0.64000000  1
  C  C53  1  0.83470000  0.12770000  0.64000000  1
  C  C54  1  0.68710000  0.75000000  0.65560000  1
  C  C55  1  0.96850000  0.25000000  0.65560000  1
  C  C56  1  0.75800000  0.68270000  0.68880000  1
  C  C57  1  0.93080000  0.18270000  0.68880000  1
  C  C58  1  0.63370000  0.99610000  0.76640000  1
  C  C59  1  0.13270000  0.49610000  0.76640000  1
  C  C60  1  0.78010000  0.66930000  0.77380000  1
  C  C61  1  0.99370000  0.16930000  0.77380000  1
  C  C62  1  0.70090000  0.68140000  0.80660000  1
  C  C63  1  0.10570000  0.18140000  0.80660000  1
  C  C64  1  0.87610000  0.63820000  0.82120000  1
  C  C65  1  0.94510000  0.13820000  0.82120000  1
  C  C66  1  0.69580000  0.95950000  0.84380000  1
  C  C67  1  0.14800000  0.45950000  0.84380000  1
  C  C68  1  0.80150000  0.93460000  0.86060000  1
  C  C69  1  0.05910000  0.43460000  0.86060000  1
  C  C70  1  0.71420000  0.66060000  0.88160000  1
  C  C71  1  0.16740000  0.16060000  0.88160000  1
  C  C72  1  0.89320000  0.62020000  0.89840000  1
  C  C73  1  0.00520000  0.12020000  0.89840000  1
  C  C74  1  0.64930000  0.95120000  0.90100000  1
  C  C75  1  0.25170000  0.45120000  0.90100000  1
  C  C76  1  0.81390000  0.62910000  0.92980000  1
  C  C77  1  0.11590000  0.12910000  0.92980000  1
  C  C78  1  0.85740000  0.90260000  0.93280000  1
  C  C79  1  0.07540000  0.40260000  0.93280000  1
  C  C80  1  0.71690000  0.92140000  0.97440000  1
  C  C81  1  0.25750000  0.42140000  0.97440000  1
  C  C82  1  0.81760000  0.89900000  0.99140000  1
  C  C83  1  0.17380000  0.39900000  0.99140000  1
  Eu  Eu84  1  0.48876000  0.95242000  0.38416000  1
  Eu  Eu85  1  0.89540000  0.45242000  0.38416000  1
  Eu  Eu86  1  0.51124000  0.04758000  0.61584000  1
  Eu  Eu87  1  0.10460000  0.54758000  0.61584000  1
  H  H88  1  0.32630000  0.41740000  0.01360000  1
  H  H89  1  0.68730000  0.91740000  0.01360000  1
  H  H90  1  0.07340000  0.11750000  0.05860000  1
  H  H91  1  0.98520000  0.61750000  0.05860000  1
  H  H92  1  0.03960000  0.39840000  0.07020000  1
  H  H93  1  0.03060000  0.89840000  0.07020000  1
  H  H94  1  0.34200000  0.33280000  0.09920000  1
  H  H95  1  0.75720000  0.83280000  0.09920000  1
  H  H96  1  0.42230000  0.03550000  0.10840000  1
  H  H97  1  0.68610000  0.53550000  0.10840000  1
  H  H98  1  0.16540000  0.06080000  0.17640000  1
  H  H99  1  0.01100000  0.56080000  0.17640000  1
  H  H100  1  0.13030000  0.87090000  0.19920000  1
  H  H101  1  0.06890000  0.37090000  0.19920000  1
  H  H102  1  0.36410000  0.29540000  0.22360000  1
  H  H103  1  0.85950000  0.79540000  0.22360000  1
  H  H104  1  0.34540000  0.21220000  0.31260000  1
  H  H105  1  0.96720000  0.71220000  0.31260000  1
  H  H106  1  0.19420000  0.91430000  0.33780000  1
  H  H107  1  0.14360000  0.41430000  0.33780000  1
  H  H108  1  0.68480000  0.70550000  0.47140000  1
  H  H109  1  0.78660000  0.20550000  0.47140000  1
  H  H110  1  0.31520000  0.29450000  0.52860000  1
  H  H111  1  0.21340000  0.79450000  0.52860000  1
  H  H112  1  0.80580000  0.08570000  0.66220000  1
  H  H113  1  0.85640000  0.58570000  0.66220000  1
  H  H114  1  0.65460000  0.78780000  0.68740000  1
  H  H115  1  0.03280000  0.28780000  0.68740000  1
  H  H116  1  0.63590000  0.70460000  0.77640000  1
  H  H117  1  0.14050000  0.20460000  0.77640000  1
  H  H118  1  0.86970000  0.12910000  0.80080000  1
  H  H119  1  0.93110000  0.62910000  0.80080000  1
  H  H120  1  0.83460000  0.93920000  0.82360000  1
  H  H121  1  0.98900000  0.43920000  0.82360000  1
  H  H122  1  0.57770000  0.96450000  0.89160000  1
  H  H123  1  0.31390000  0.46450000  0.89160000  1
  H  H124  1  0.65800000  0.66720000  0.90080000  1
  H  H125  1  0.24280000  0.16720000  0.90080000  1
  H  H126  1  0.96040000  0.60160000  0.92980000  1
  H  H127  1  0.96940000  0.10160000  0.92980000  1
  H  H128  1  0.92660000  0.88250000  0.94140000  1
  H  H129  1  0.01480000  0.38250000  0.94140000  1
  H  H130  1  0.67370000  0.58260000  0.98640000  1
  H  H131  1  0.31270000  0.08260000  0.98640000  1
  O  O132  1  0.46790000  0.00360000  0.25480000  1
  O  O133  1  0.78690000  0.50360000  0.25480000  1
  O  O134  1  0.31650000  0.98120000  0.27520000  1
  O  O135  1  0.95870000  0.48120000  0.27520000  1
  O  O136  1  0.45120000  0.11560000  0.41120000  1
  O  O137  1  0.96000000  0.61560000  0.41120000  1
  O  O138  1  0.66168000  0.04960000  0.43096000  1
  O  O139  1  0.76928000  0.54960000  0.43096000  1
  O  O140  1  0.38082000  0.95780000  0.46264000  1
  O  O141  1  0.08182000  0.45780000  0.46264000  1
  O  O142  1  0.57398000  0.84360000  0.46996000  1
  O  O143  1  0.89598000  0.34360000  0.46996000  1
  O  O144  1  0.42602000  0.15640000  0.53004000  1
  O  O145  1  0.10402000  0.65640000  0.53004000  1
  O  O146  1  0.61918000  0.04220000  0.53736000  1
  O  O147  1  0.91818000  0.54220000  0.53736000  1
  O  O148  1  0.33832000  0.95040000  0.56904000  1
  O  O149  1  0.23072000  0.45040000  0.56904000  1
  O  O150  1  0.54880000  0.88440000  0.58880000  1
  O  O151  1  0.04000000  0.38440000  0.58880000  1
  O  O152  1  0.68350000  0.01880000  0.72480000  1
  O  O153  1  0.04130000  0.51880000  0.72480000  1
  O  O154  1  0.53210000  0.99640000  0.74520000  1
  O  O155  1  0.21310000  0.49640000  0.74520000  1
