# generated using pymatgen
data_ZnH3C3(N2O)2
_symmetry_space_group_name_H-M   'P 1'
_cell_length_a   8.09800000
_cell_length_b   8.91100000
_cell_length_c   10.28900000
_cell_angle_alpha   101.43300000
_cell_angle_beta   90.00000000
_cell_angle_gamma   90.00000000
_symmetry_Int_Tables_number   1
_chemical_formula_structural   ZnH3C3(N2O)2
_chemical_formula_sum   'Zn4 H12 C12 N16 O8'
_cell_volume   727.73473484
_cell_formula_units_Z   4
loop_
 _symmetry_equiv_pos_site_id
 _symmetry_equiv_pos_as_xyz
  1  'x, y, z'
loop_
 _atom_site_type_symbol
 _atom_site_label
 _atom_site_symmetry_multiplicity
 _atom_site_fract_x
 _atom_site_fract_y
 _atom_site_fract_z
 _atom_site_occupancy
  Zn  Zn0  1  0.94122000  0.68618000  0.43864000  1
  Zn  Zn1  1  0.55878000  0.68618000  0.93864000  1
  Zn  Zn2  1  0.44122000  0.31382000  0.06136000  1
  Zn  Zn3  1  0.05878000  0.31382000  0.56136000  1
  H  H4  1  0.76690000  0.80130000  0.19850000  1
  H  H5  1  0.73310000  0.80130000  0.69850000  1
  H  H6  1  0.33333333  0.71880000  0.72120000  1
  H  H7  1  0.16660000  0.71880000  0.22120000  1
  H  H8  1  0.27470000  0.62550000  0.11890000  1
  H  H9  1  0.22530000  0.62550000  0.61890000  1
  H  H10  1  0.77470000  0.37450000  0.38110000  1
  H  H11  1  0.72530000  0.37450000  0.88110000  1
  H  H12  1  0.83340000  0.28120000  0.77880000  1
  H  H13  1  0.66660000  0.28120000  0.27880000  1
  H  H14  1  0.26690000  0.19870000  0.30150000  1
  H  H15  1  0.23310000  0.19870000  0.80150000  1
  C  C16  1  0.40840000  0.98160000  0.99230000  1
  C  C17  1  0.09160000  0.98160000  0.49230000  1
  C  C18  1  0.76590000  0.70080000  0.69650000  1
  C  C19  1  0.73410000  0.70080000  0.19650000  1
  C  C20  1  0.29440000  0.51380000  0.75450000  1
  C  C21  1  0.20560000  0.51380000  0.25450000  1
  C  C22  1  0.79440000  0.48620000  0.74550000  1
  C  C23  1  0.70560000  0.48620000  0.24550000  1
  C  C24  1  0.26590000  0.29920000  0.80350000  1
  C  C25  1  0.23410000  0.29920000  0.30350000  1
  C  C26  1  0.90840000  0.01840000  0.50770000  1
  C  C27  1  0.59160000  0.01840000  0.00770000  1
  N  N28  1  0.28290000  0.63440000  0.69020000  1
  N  N29  1  0.21710000  0.63440000  0.19020000  1
  N  N30  1  0.86170000  0.62310000  0.60340000  1
  N  N31  1  0.63830000  0.62310000  0.10340000  1
  N  N32  1  0.77950000  0.62160000  0.28770000  1
  N  N33  1  0.72050000  0.62160000  0.78770000  1
  N  N34  1  0.38150000  0.51980000  0.86530000  1
  N  N35  1  0.11850000  0.51980000  0.36530000  1
  N  N36  1  0.88150000  0.48020000  0.63470000  1
  N  N37  1  0.61850000  0.48020000  0.13470000  1
  N  N38  1  0.27950000  0.37840000  0.21230000  1
  N  N39  1  0.22050000  0.37840000  0.71230000  1
  N  N40  1  0.36170000  0.37690000  0.89660000  1
  N  N41  1  0.13830000  0.37690000  0.39660000  1
  N  N42  1  0.78290000  0.36560000  0.80980000  1
  N  N43  1  0.71710000  0.36560000  0.30980000  1
  O  O44  1  0.80980000  0.90910000  0.48900000  1
  O  O45  1  0.69020000  0.90910000  0.98900000  1
  O  O46  1  0.37060000  0.84180000  0.95900000  1
  O  O47  1  0.12940000  0.84180000  0.45900000  1
  O  O48  1  0.87060000  0.15820000  0.54100000  1
  O  O49  1  0.62940000  0.15820000  0.04100000  1
  O  O50  1  0.30980000  0.09090000  0.01100000  1
  O  O51  1  0.19020000  0.09090000  0.51100000  1
