# generated using pymatgen
data_Mn2H4C20(S2O3)3
_symmetry_space_group_name_H-M   'P 1'
_cell_length_a   11.03110000
_cell_length_b   11.51970000
_cell_length_c   14.78205242
_cell_angle_alpha   112.93256415
_cell_angle_beta   101.69803818
_cell_angle_gamma   90.00000000
_symmetry_Int_Tables_number   1
_chemical_formula_structural   Mn2H4C20(S2O3)3
_chemical_formula_sum   'Mn4 H8 C40 S12 O18'
_cell_volume   1687.52103659
_cell_formula_units_Z   2
loop_
 _symmetry_equiv_pos_site_id
 _symmetry_equiv_pos_as_xyz
  1  'x, y, z'
loop_
 _atom_site_type_symbol
 _atom_site_label
 _atom_site_symmetry_multiplicity
 _atom_site_fract_x
 _atom_site_fract_y
 _atom_site_fract_z
 _atom_site_occupancy
  Mn  Mn0  1  0.91540000  0.12412000  0.99492000  1
  Mn  Mn1  1  0.58460000  0.12920000  0.00508000  1
  Mn  Mn2  1  0.41540000  0.87080000  0.99492000  1
  Mn  Mn3  1  0.08460000  0.87588000  0.00508000  1
  H  H4  1  0.97970000  0.51810000  0.73280000  1
  H  H5  1  0.92110000  0.13990000  0.27920000  1
  H  H6  1  0.57890000  0.86070000  0.72080000  1
  H  H7  1  0.52030000  0.78530000  0.26720000  1
  H  H8  1  0.47970000  0.21470000  0.73280000  1
  H  H9  1  0.42110000  0.13930000  0.27920000  1
  H  H10  1  0.07890000  0.86010000  0.72080000  1
  H  H11  1  0.02030000  0.48190000  0.26720000  1
  C  C12  1  0.99282000  0.19282000  0.31704000  1
  C  C13  1  0.98909000  0.72629000  0.57918000  1
  C  C14  1  0.96495000  0.57835000  0.40130000  1
  C  C15  1  0.95692000  0.49172000  0.30184000  1
  C  C16  1  0.90618000  0.79698000  0.71956000  1
  C  C17  1  0.88050000  0.85990000  0.82080000  1
  C  C18  1  0.87445000  0.65765000  0.54010000  1
  C  C19  1  0.86025000  0.57385000  0.43730000  1
  C  C20  1  0.84445000  0.42415000  0.26290000  1
  C  C21  1  0.80207000  0.32027000  0.16134000  1
  C  C22  1  0.69793000  0.15893000  0.83866000  1
  C  C23  1  0.65555000  0.16125000  0.73710000  1
  C  C24  1  0.63975000  0.13655000  0.56270000  1
  C  C25  1  0.62555000  0.11755000  0.45990000  1
  C  C26  1  0.61950000  0.03910000  0.17920000  1
  C  C27  1  0.59382000  0.07742000  0.28044000  1
  C  C28  1  0.54308000  0.18988000  0.69816000  1
  C  C29  1  0.53505000  0.17705000  0.59870000  1
  C  C30  1  0.51091000  0.14711000  0.42082000  1
  C  C31  1  0.50718000  0.87578000  0.68296000  1
  C  C32  1  0.49282000  0.12422000  0.31704000  1
  C  C33  1  0.48909000  0.85289000  0.57918000  1
  C  C34  1  0.46495000  0.82295000  0.40130000  1
  C  C35  1  0.45692000  0.81012000  0.30184000  1
  C  C36  1  0.40618000  0.92258000  0.71956000  1
  C  C37  1  0.38050000  0.96090000  0.82080000  1
  C  C38  1  0.37445000  0.88245000  0.54010000  1
  C  C39  1  0.36025000  0.86345000  0.43730000  1
  C  C40  1  0.34445000  0.83875000  0.26290000  1
  C  C41  1  0.30207000  0.84107000  0.16134000  1
  C  C42  1  0.19793000  0.67973000  0.83866000  1
  C  C43  1  0.15555000  0.57585000  0.73710000  1
  C  C44  1  0.13975000  0.42615000  0.56270000  1
  C  C45  1  0.12555000  0.34235000  0.45990000  1
  C  C46  1  0.11950000  0.14010000  0.17920000  1
  C  C47  1  0.09382000  0.20302000  0.28044000  1
  C  C48  1  0.04308000  0.50828000  0.69816000  1
  C  C49  1  0.03505000  0.42165000  0.59870000  1
  C  C50  1  0.01091000  0.27371000  0.42082000  1
  C  C51  1  0.00718000  0.80718000  0.68296000  1
  S  S52  1  0.91816000  0.31036000  0.50936000  1
  S  S53  1  0.78806000  0.68820000  0.62934000  1
  S  S54  1  0.75334000  0.11699000  0.65326000  1
  S  S55  1  0.74666000  0.46373000  0.34674000  1
  S  S56  1  0.71194000  0.05886000  0.37066000  1
  S  S57  1  0.58184000  0.80100000  0.49064000  1
  S  S58  1  0.41816000  0.19900000  0.50936000  1
  S  S59  1  0.28806000  0.94114000  0.62934000  1
  S  S60  1  0.25334000  0.53627000  0.65326000  1
  S  S61  1  0.24666000  0.88301000  0.34674000  1
  S  S62  1  0.21194000  0.31180000  0.37066000  1
  S  S63  1  0.08184000  0.68964000  0.49064000  1
  O  O64  1  0.96725000  0.93554000  0.89190000  1
  O  O65  1  0.88021000  0.29171000  0.10714000  1
  O  O66  1  0.80649000  0.13229000  0.86074000  1
  O  O67  1  0.77536000  0.83708000  0.83102000  1
  O  O68  1  0.75000000  0.01500000  0.00000000  1
  O  O69  1  0.72464000  0.00606000  0.16898000  1
  O  O70  1  0.69351000  0.27155000  0.13926000  1
  O  O71  1  0.61979000  0.18457000  0.89286000  1
  O  O72  1  0.53275000  0.04364000  0.10810000  1
  O  O73  1  0.46725000  0.95636000  0.89190000  1
  O  O74  1  0.38021000  0.81543000  0.10714000  1
  O  O75  1  0.30649000  0.72845000  0.86074000  1
  O  O76  1  0.27536000  0.99394000  0.83102000  1
  O  O77  1  0.25000000  0.98500000  0.00000000  1
  O  O78  1  0.22464000  0.16292000  0.16898000  1
  O  O79  1  0.19351000  0.86771000  0.13926000  1
  O  O80  1  0.11979000  0.70829000  0.89286000  1
  O  O81  1  0.03275000  0.06446000  0.10810000  1
