# generated using pymatgen
data_NbNiH8C8N4(OF2)2
_symmetry_space_group_name_H-M   'P 1'
_cell_length_a   9.94300000
_cell_length_b   9.94300000
_cell_length_c   10.56208069
_cell_angle_alpha   118.07930577
_cell_angle_beta   118.07930577
_cell_angle_gamma   90.00000000
_symmetry_Int_Tables_number   1
_chemical_formula_structural   NbNiH8C8N4(OF2)2
_chemical_formula_sum   'Nb2 Ni2 H16 C16 N8 O4 F8'
_cell_volume   779.24012862
_cell_formula_units_Z   2
loop_
 _symmetry_equiv_pos_site_id
 _symmetry_equiv_pos_as_xyz
  1  'x, y, z'
loop_
 _atom_site_type_symbol
 _atom_site_label
 _atom_site_symmetry_multiplicity
 _atom_site_fract_x
 _atom_site_fract_y
 _atom_site_fract_z
 _atom_site_occupancy
  C  C0  1  0.34810000  0.43010000  0.37600000  1
  C  C1  1  0.97210000  0.05410000  0.62400000  1
  C  C2  1  0.47210000  0.06990000  0.62400000  1
  C  C3  1  0.84810000  0.44590000  0.37600000  1
  C  C4  1  0.55410000  0.47210000  0.62400000  1
  C  C5  1  0.93010000  0.84810000  0.37600000  1
  C  C6  1  0.43010000  0.02790000  0.37600000  1
  C  C7  1  0.05410000  0.65190000  0.62400000  1
  C  C8  1  0.44590000  0.52790000  0.37600000  1
  C  C9  1  0.06990000  0.15190000  0.62400000  1
  C  C10  1  0.56990000  0.97210000  0.62400000  1
  C  C11  1  0.94590000  0.34810000  0.37600000  1
  C  C12  1  0.65190000  0.56990000  0.62400000  1
  C  C13  1  0.02790000  0.94590000  0.37600000  1
  C  C14  1  0.52790000  0.93010000  0.37600000  1
  C  C15  1  0.15190000  0.55410000  0.62400000  1
  F  F16  1  0.00800000  0.19080000  1.00000000  1
  F  F17  1  0.50800000  0.30920000  0.00000000  1
  F  F18  1  0.69080000  0.50800000  0.00000000  1
  F  F19  1  0.19080000  0.99200000  1.00000000  1
  F  F20  1  0.30920000  0.49200000  0.00000000  1
  F  F21  1  0.80920000  0.00800000  1.00000000  1
  F  F22  1  0.99200000  0.80920000  0.00000000  1
  F  F23  1  0.49200000  0.69080000  0.00000000  1
  H  H24  1  0.24210000  0.38280000  0.28720000  1
  H  H25  1  0.95490000  0.09560000  0.71280000  1
  H  H26  1  0.45490000  0.11720000  0.71280000  1
  H  H27  1  0.74210000  0.40440000  0.28720000  1
  H  H28  1  0.59560000  0.45490000  0.71280000  1
  H  H29  1  0.88280000  0.74210000  0.28720000  1
  H  H30  1  0.38280000  0.04510000  0.28720000  1
  H  H31  1  0.09560000  0.75790000  0.71280000  1
  H  H32  1  0.40440000  0.54510000  0.28720000  1
  H  H33  1  0.11720000  0.25790000  0.71280000  1
  H  H34  1  0.61720000  0.95490000  0.71280000  1
  H  H35  1  0.90440000  0.24210000  0.28720000  1
  H  H36  1  0.75790000  0.61720000  0.71280000  1
  H  H37  1  0.04510000  0.90440000  0.28720000  1
  H  H38  1  0.54510000  0.88280000  0.28720000  1
  H  H39  1  0.25790000  0.59560000  0.71280000  1
  N  N40  1  0.40140000  0.40140000  0.50000000  1
  N  N41  1  0.90140000  0.90140000  0.50000000  1
  N  N42  1  0.40140000  0.09860000  0.50000000  1
  N  N43  1  0.90140000  0.59860000  0.50000000  1
  N  N44  1  0.59860000  0.59860000  0.50000000  1
  N  N45  1  0.09860000  0.09860000  0.50000000  1
  N  N46  1  0.59860000  0.90140000  0.50000000  1
  N  N47  1  0.09860000  0.40140000  0.50000000  1
  Nb  Nb48  1  0.00000000  0.00000000  0.00000000  1
  Nb  Nb49  1  0.50000000  0.50000000  0.00000000  1
  Ni  Ni50  1  0.25000000  0.25000000  0.50000000  1
  Ni  Ni51  1  0.75000000  0.75000000  0.50000000  1
  O  O52  1  0.12310000  0.12310000  0.24620000  1
  O  O53  1  0.37690000  0.37690000  0.75380000  1
  O  O54  1  0.62310000  0.62310000  0.24620000  1
  O  O55  1  0.87690000  0.87690000  0.75380000  1
