# generated using pymatgen
data_La2H18C24O13
_symmetry_space_group_name_H-M   'P 1'
_cell_length_a   11.85700000
_cell_length_b   12.51500000
_cell_length_c   12.55400000
_cell_angle_alpha   119.12000000
_cell_angle_beta   108.27000000
_cell_angle_gamma   98.44000000
_symmetry_Int_Tables_number   1
_chemical_formula_structural   La2H18C24O13
_chemical_formula_sum   'La4 H36 C48 O26'
_cell_volume   1441.27691450
_cell_formula_units_Z   2
loop_
 _symmetry_equiv_pos_site_id
 _symmetry_equiv_pos_as_xyz
  1  'x, y, z'
loop_
 _atom_site_type_symbol
 _atom_site_label
 _atom_site_symmetry_multiplicity
 _atom_site_fract_x
 _atom_site_fract_y
 _atom_site_fract_z
 _atom_site_occupancy
  La  La0  1  0.80285000  0.75610000  0.23593000  1
  La  La1  1  0.52025000  0.82205000  0.98897000  1
  La  La2  1  0.47975000  0.17795000  0.01103000  1
  La  La3  1  0.19715000  0.24390000  0.76407000  1
  H  H4  1  0.92730000  0.02600000  0.08120000  1
  H  H5  1  0.91780000  0.67820000  0.58800000  1
  H  H6  1  0.91280000  0.16030000  0.17580000  1
  H  H7  1  0.87750000  0.00970000  0.84470000  1
  H  H8  1  0.84800000  0.48390000  0.65350000  1
  H  H9  1  0.84800000  0.28450000  0.46330000  1
  H  H10  1  0.83550000  0.67720000  0.81850000  1
  H  H11  1  0.77960000  0.14360000  0.42910000  1
  H  H12  1  0.73160000  0.48170000  0.40820000  1
  H  H13  1  0.68710000  0.65340000  0.77420000  1
  H  H14  1  0.67270000  0.03270000  0.79170000  1
  H  H15  1  0.65690000  0.12610000  0.54890000  1
  H  H16  1  0.59360000  0.44390000  0.79690000  1
  H  H17  1  0.59340000  0.48280000  0.39540000  1
  H  H18  1  0.58100000  0.81170000  0.38650000  1
  H  H19  1  0.56640000  0.69620000  0.51900000  1
  H  H20  1  0.55180000  0.91750000  0.65220000  1
  H  H21  1  0.50630000  0.90950000  0.39560000  1
  H  H22  1  0.49370000  0.09050000  0.60440000  1
  H  H23  1  0.44820000  0.08250000  0.34780000  1
  H  H24  1  0.43360000  0.30380000  0.48100000  1
  H  H25  1  0.41900000  0.18830000  0.61350000  1
  H  H26  1  0.40660000  0.51720000  0.60460000  1
  H  H27  1  0.40640000  0.55610000  0.20310000  1
  H  H28  1  0.34310000  0.87390000  0.45110000  1
  H  H29  1  0.32730000  0.96730000  0.20830000  1
  H  H30  1  0.31290000  0.34660000  0.22580000  1
  H  H31  1  0.26840000  0.51830000  0.59180000  1
  H  H32  1  0.22040000  0.85640000  0.57090000  1
  H  H33  1  0.16450000  0.32280000  0.18150000  1
  H  H34  1  0.15200000  0.71550000  0.53670000  1
  H  H35  1  0.15200000  0.51610000  0.34650000  1
  H  H36  1  0.12250000  0.99030000  0.15530000  1
  H  H37  1  0.08720000  0.83970000  0.82420000  1
  H  H38  1  0.08220000  0.32180000  0.41200000  1
  H  H39  1  0.07270000  0.97400000  0.91880000  1
  C  C40  1  0.95680000  0.24600000  0.59590000  1
  C  C41  1  0.93980000  0.08880000  0.17490000  1
  C  C42  1  0.91890000  0.85240000  0.73190000  1
  C  C43  1  0.86460000  0.72530000  0.61380000  1
  C  C44  1  0.85010000  0.01850000  0.20320000  1
  C  C45  1  0.84070000  0.92180000  0.76670000  1
  C  C46  1  0.83190000  0.23660000  0.50390000  1
  C  C47  1  0.78810000  0.43010000  0.65930000  1
  C  C48  1  0.78190000  0.69220000  0.96550000  1
  C  C49  1  0.76130000  0.29570000  0.58700000  1
  C  C50  1  0.75870000  0.63480000  0.81940000  1
  C  C51  1  0.73350000  0.66680000  0.53320000  1
  C  C52  1  0.72780000  0.48730000  0.74060000  1
  C  C53  1  0.70900000  0.86460000  0.68900000  1
  C  C54  1  0.67320000  0.52980000  0.40260000  1
  C  C55  1  0.67300000  0.21750000  0.59550000  1
  C  C56  1  0.65620000  0.73640000  0.57230000  1
  C  C57  1  0.64300000  0.52690000  0.27450000  1
  C  C58  1  0.63670000  0.40640000  0.74410000  1
  C  C59  1  0.62380000  0.93720000  0.73360000  1
  C  C60  1  0.60790000  0.27090000  0.67100000  1
  C  C61  1  0.57200000  0.90010000  0.81190000  1
  C  C62  1  0.50360000  0.20650000  0.79410000  1
  C  C63  1  0.50110000  0.81820000  0.33830000  1
  C  C64  1  0.49890000  0.18180000  0.66170000  1
  C  C65  1  0.49640000  0.79350000  0.20590000  1
  C  C66  1  0.42800000  0.09990000  0.18810000  1
  C  C67  1  0.39210000  0.72910000  0.32900000  1
  C  C68  1  0.37620000  0.06280000  0.26640000  1
  C  C69  1  0.36330000  0.59360000  0.25590000  1
  C  C70  1  0.35700000  0.47310000  0.72550000  1
  C  C71  1  0.34380000  0.26360000  0.42770000  1
  C  C72  1  0.32700000  0.78250000  0.40450000  1
  C  C73  1  0.32680000  0.47020000  0.59740000  1
  C  C74  1  0.29100000  0.13540000  0.31100000  1
  C  C75  1  0.27220000  0.51270000  0.25940000  1
  C  C76  1  0.26650000  0.33320000  0.46680000  1
  C  C77  1  0.24130000  0.36520000  0.18060000  1
  C  C78  1  0.23870000  0.70430000  0.41300000  1
  C  C79  1  0.21810000  0.30780000  0.03450000  1
  C  C80  1  0.21190000  0.56990000  0.34070000  1
  C  C81  1  0.16810000  0.76340000  0.49610000  1
  C  C82  1  0.15930000  0.07820000  0.23330000  1
  C  C83  1  0.14990000  0.98150000  0.79680000  1
  C  C84  1  0.13540000  0.27470000  0.38620000  1
  C  C85  1  0.08110000  0.14760000  0.26810000  1
  C  C86  1  0.06020000  0.91120000  0.82510000  1
  C  C87  1  0.04320000  0.75400000  0.40410000  1
  O  O88  1  0.95670000  0.16640000  0.63180000  1
  O  O89  1  0.94030000  0.66710000  0.36090000  1
  O  O90  1  0.89020000  0.97570000  0.27330000  1
  O  O91  1  0.88410000  0.70600000  0.04980000  1
  O  O92  1  0.73340000  0.00290000  0.14650000  1
  O  O93  1  0.69500000  0.72180000  0.00020000  1
  O  O94  1  0.66850000  0.63228000  0.28300000  1
  O  O95  1  0.60510000  0.23510000  0.88910000  1
  O  O96  1  0.60170000  0.81240000  0.19830000  1
  O  O97  1  0.59260000  0.41580000  0.16150000  1
  O  O98  1  0.57440000  0.53320000  0.02500000  1
  O  O99  1  0.57240000  0.79650000  0.80200000  1
  O  O100  1  0.52900000  0.97680000  0.88670000  1
  O  O101  1  0.47100000  0.02320000  0.11330000  1
  O  O102  1  0.42760000  0.20350000  0.19800000  1
  O  O103  1  0.42560000  0.46680000  0.97500000  1
  O  O104  1  0.40740000  0.58420000  0.83850000  1
  O  O105  1  0.39830000  0.18760000  0.80170000  1
  O  O106  1  0.39490000  0.76490000  0.11090000  1
  O  O107  1  0.33150000  0.36772000  0.71700000  1
  O  O108  1  0.30500000  0.27820000  0.99980000  1
  O  O109  1  0.26660000  0.99710000  0.85350000  1
  O  O110  1  0.11590000  0.29400000  0.95020000  1
  O  O111  1  0.10980000  0.02430000  0.72670000  1
  O  O112  1  0.05970000  0.33290000  0.63910000  1
  O  O113  1  0.04330000  0.83360000  0.36820000  1
