# generated using pymatgen
data_K3Co14H48(C16O9)6
_symmetry_space_group_name_H-M   'P 1'
_cell_length_a   16.92609132
_cell_length_b   16.92609132
_cell_length_c   29.85370000
_cell_angle_alpha   73.53175000
_cell_angle_beta   73.53175000
_cell_angle_gamma   60.00000000
_symmetry_Int_Tables_number   1
_chemical_formula_structural   K3Co14H48(C16O9)6
_chemical_formula_sum   'K6 Co28 H96 C192 O108'
_cell_volume   6998.92259639
_cell_formula_units_Z   2
loop_
 _symmetry_equiv_pos_site_id
 _symmetry_equiv_pos_as_xyz
  1  'x, y, z'
loop_
 _atom_site_type_symbol
 _atom_site_label
 _atom_site_symmetry_multiplicity
 _atom_site_fract_x
 _atom_site_fract_y
 _atom_site_fract_z
 _atom_site_occupancy
  K  K0  1  0.75000000  0.15047000  0.75000000  1
  K  K1  1  0.65047000  0.25000000  0.25000000  1
  K  K2  1  0.15047000  0.34953000  0.75000000  1
  K  K3  1  0.84953000  0.65047000  0.25000000  1
  K  K4  1  0.34953000  0.75000000  0.75000000  1
  K  K5  1  0.25000000  0.84953000  0.25000000  1
  Co  Co6  1  0.77999000  0.04811000  0.32291000  1
  Co  Co7  1  0.74804000  0.06383000  0.43025000  1
  Co  Co8  1  0.14043000  0.14043000  0.57871000  1
  Co  Co9  1  0.95189000  0.15101000  0.67709000  1
  Co  Co10  1  0.15101000  0.22001000  0.67709000  1
  Co  Co11  1  0.93617000  0.24212000  0.56975000  1
  Co  Co12  1  0.56383000  0.24804000  0.93025000  1
  Co  Co13  1  0.24212000  0.25196000  0.56975000  1
  Co  Co14  1  0.24804000  0.25788000  0.93025000  1
  Co  Co15  1  0.54811000  0.27999000  0.82291000  1
  Co  Co16  1  0.27999000  0.34899000  0.82291000  1
  Co  Co17  1  0.35957000  0.35957000  0.92129000  1
  Co  Co18  1  0.74212000  0.43617000  0.06975000  1
  Co  Co19  1  0.65101000  0.45189000  0.17709000  1
  Co  Co20  1  0.34899000  0.54811000  0.82291000  1
  Co  Co21  1  0.25788000  0.56383000  0.93025000  1
  Co  Co22  1  0.64043000  0.64043000  0.07871000  1
  Co  Co23  1  0.72001000  0.65101000  0.17709000  1
  Co  Co24  1  0.45189000  0.72001000  0.17709000  1
  Co  Co25  1  0.75196000  0.74212000  0.06975000  1
  Co  Co26  1  0.75788000  0.74804000  0.43025000  1
  Co  Co27  1  0.43617000  0.75196000  0.06975000  1
  Co  Co28  1  0.06383000  0.75788000  0.43025000  1
  Co  Co29  1  0.84899000  0.77999000  0.32291000  1
  Co  Co30  1  0.04811000  0.84899000  0.32291000  1
  Co  Co31  1  0.85957000  0.85957000  0.42129000  1
  Co  Co32  1  0.25196000  0.93617000  0.56975000  1
  Co  Co33  1  0.22001000  0.95189000  0.67709000  1
  H  H34  1  0.32330000  0.00480000  0.45950000  1
  H  H35  1  0.44730000  0.02250000  0.63590000  1
  H  H36  1  0.37430000  0.03060000  0.03390000  1
  H  H37  1  0.07880000  0.03580000  0.09930000  1
  H  H38  1  0.23220000  0.03900000  0.91270000  1
  H  H39  1  0.90620000  0.04470000  0.82540000  1
  H  H40  1  0.47750000  0.05270000  0.86410000  1
  H  H41  1  0.57410000  0.05270000  0.60650000  1
  H  H42  1  0.87430000  0.06120000  0.53390000  1
  H  H43  1  0.55270000  0.07410000  0.10650000  1
  H  H44  1  0.78610000  0.07880000  0.09930000  1
  H  H45  1  0.77630000  0.09380000  0.17460000  1
  H  H46  1  0.97750000  0.10570000  0.36410000  1
  H  H47  1  0.46940000  0.12570000  0.46610000  1
  H  H48  1  0.25210000  0.13760000  0.77320000  1
  H  H49  1  0.86240000  0.16290000  0.22680000  1
  H  H50  1  0.49520000  0.17670000  0.04050000  1
  H  H51  1  0.96100000  0.18390000  0.08730000  1
  H  H52  1  0.00480000  0.21240000  0.45950000  1
  H  H53  1  0.96420000  0.21390000  0.90070000  1
  H  H54  1  0.04470000  0.22370000  0.82540000  1
  H  H55  1  0.81610000  0.23220000  0.91270000  1
  H  H56  1  0.94730000  0.23330000  0.39350000  1
  H  H57  1  0.36240000  0.24790000  0.72680000  1
  H  H58  1  0.83710000  0.25210000  0.77320000  1
  H  H59  1  0.07410000  0.26670000  0.10650000  1
  H  H60  1  0.46100000  0.26780000  0.58730000  1
  H  H61  1  0.59380000  0.27630000  0.67460000  1
  H  H62  1  0.57880000  0.28610000  0.59930000  1
  H  H63  1  0.17670000  0.28760000  0.04050000  1
  H  H64  1  0.73220000  0.31610000  0.41270000  1
  H  H65  1  0.21240000  0.32330000  0.45950000  1
  H  H66  1  0.75210000  0.33710000  0.27320000  1
  H  H67  1  0.66290000  0.36240000  0.72680000  1
  H  H68  1  0.56120000  0.37430000  0.03390000  1
  H  H69  1  0.94730000  0.39430000  0.13590000  1
  H  H70  1  0.54470000  0.40620000  0.32540000  1
  H  H71  1  0.46420000  0.42120000  0.40070000  1
  H  H72  1  0.23330000  0.42590000  0.39350000  1
  H  H73  1  0.96940000  0.43880000  0.96610000  1
  H  H74  1  0.73330000  0.44730000  0.89350000  1
  H  H75  1  0.89430000  0.44730000  0.63590000  1
  H  H76  1  0.27630000  0.45530000  0.67460000  1
  H  H77  1  0.68390000  0.46100000  0.58730000  1
  H  H78  1  0.71390000  0.46420000  0.40070000  1
  H  H79  1  0.93880000  0.46940000  0.46610000  1
  H  H80  1  0.60570000  0.47750000  0.86410000  1
  H  H81  1  0.28760000  0.49520000  0.04050000  1
  H  H82  1  0.71240000  0.50480000  0.95950000  1
  H  H83  1  0.39430000  0.52250000  0.13590000  1
  H  H84  1  0.06120000  0.53060000  0.53390000  1
  H  H85  1  0.28610000  0.53580000  0.59930000  1
  H  H86  1  0.31610000  0.53900000  0.41270000  1
  H  H87  1  0.72370000  0.54470000  0.32540000  1
  H  H88  1  0.10570000  0.55270000  0.36410000  1
  H  H89  1  0.26670000  0.55270000  0.10650000  1
  H  H90  1  0.03060000  0.56120000  0.03390000  1
  H  H91  1  0.76670000  0.57410000  0.60650000  1
  H  H92  1  0.53580000  0.57880000  0.59930000  1
  H  H93  1  0.45530000  0.59380000  0.67460000  1
  H  H94  1  0.05270000  0.60570000  0.86410000  1
  H  H95  1  0.43880000  0.62570000  0.96610000  1
  H  H96  1  0.33710000  0.63760000  0.27320000  1
  H  H97  1  0.24790000  0.66290000  0.72680000  1
  H  H98  1  0.78760000  0.67670000  0.54050000  1
  H  H99  1  0.26780000  0.68390000  0.58730000  1
  H  H100  1  0.82330000  0.71240000  0.95950000  1
  H  H101  1  0.42120000  0.71390000  0.40070000  1
  H  H102  1  0.40620000  0.72370000  0.32540000  1
  H  H103  1  0.53900000  0.73220000  0.41270000  1
  H  H104  1  0.92590000  0.73330000  0.89350000  1
  H  H105  1  0.16290000  0.74790000  0.22680000  1
  H  H106  1  0.63760000  0.75210000  0.27320000  1
  H  H107  1  0.05270000  0.76670000  0.60650000  1
  H  H108  1  0.18390000  0.76780000  0.08730000  1
  H  H109  1  0.95530000  0.77630000  0.17460000  1
  H  H110  1  0.03580000  0.78610000  0.09930000  1
  H  H111  1  0.99520000  0.78760000  0.54050000  1
  H  H112  1  0.03900000  0.81610000  0.91270000  1
  H  H113  1  0.50480000  0.82330000  0.95950000  1
  H  H114  1  0.13760000  0.83710000  0.77320000  1
  H  H115  1  0.74790000  0.86240000  0.22680000  1
  H  H116  1  0.53060000  0.87430000  0.53390000  1
  H  H117  1  0.02250000  0.89430000  0.63590000  1
  H  H118  1  0.22370000  0.90620000  0.82540000  1
  H  H119  1  0.21390000  0.92120000  0.90070000  1
  H  H120  1  0.44730000  0.92590000  0.89350000  1
  H  H121  1  0.12570000  0.93880000  0.46610000  1
  H  H122  1  0.42590000  0.94730000  0.39350000  1
  H  H123  1  0.52250000  0.94730000  0.13590000  1
  H  H124  1  0.09380000  0.95530000  0.17460000  1
  H  H125  1  0.76780000  0.96100000  0.08730000  1
  H  H126  1  0.92120000  0.96420000  0.90070000  1
  H  H127  1  0.62570000  0.96940000  0.96610000  1
  H  H128  1  0.55270000  0.97750000  0.36410000  1
  H  H129  1  0.67670000  0.99520000  0.54050000  1
  C  C130  1  0.51080000  0.00120000  0.39050000  1
  C  C131  1  0.91040000  0.00180000  0.54860000  1
  C  C132  1  0.01056000  0.00896000  0.74482000  1
  C  C133  1  0.05475000  0.00955000  0.41255000  1
  C  C134  1  0.23566000  0.01056000  0.74482000  1
  C  C135  1  0.50120000  0.01080000  0.89050000  1
  C  C136  1  0.04394000  0.01374000  0.16968000  1
  C  C137  1  0.56502000  0.01702000  0.59174000  1
  C  C138  1  0.37327000  0.01787000  0.44759000  1
  C  C139  1  0.23712000  0.02042000  0.79204000  1
  C  C140  1  0.55475000  0.02315000  0.91255000  1
  C  C141  1  0.23312000  0.03482000  0.88204000  1
  C  C142  1  0.77680000  0.03610000  0.12510000  1
  C  C143  1  0.41040000  0.03920000  0.04860000  1
  C  C144  1  0.77264000  0.04394000  0.16968000  1
  C  C145  1  0.97958000  0.04958000  0.20796000  1
  C  C146  1  0.52315000  0.05475000  0.41255000  1
  C  C147  1  0.11218000  0.05748000  0.51116000  1
  C  C148  1  0.03610000  0.06200000  0.12510000  1
  C  C149  1  0.51702000  0.06502000  0.09174000  1
  C  C150  1  0.60735000  0.06815000  0.39665000  1
  C  C151  1  0.38553000  0.07193000  0.46901000  1
  C  C152  1  0.93185000  0.07215000  0.60335000  1
  C  C153  1  0.07193000  0.07353000  0.46901000  1
  C  C154  1  0.46080000  0.08960000  0.45140000  1
  C  C155  1  0.24551000  0.09351000  0.79897000  1
  C  C156  1  0.00120000  0.09750000  0.39050000  1
  C  C157  1  0.24403000  0.10043000  0.84421000  1
  C  C158  1  0.56815000  0.10735000  0.89665000  1
  C  C159  1  0.31918000  0.11218000  0.51116000  1
  C  C160  1  0.42807000  0.11447000  0.03099000  1
  C  C161  1  0.48213000  0.12673000  0.05241000  1
  C  C162  1  0.90649000  0.13799000  0.20103000  1
  C  C163  1  0.96518000  0.14998000  0.11796000  1
  C  C164  1  0.01787000  0.16127000  0.44759000  1
  C  C165  1  0.98298000  0.17378000  0.40826000  1
  C  C166  1  0.25201000  0.17671000  0.85477000  1
  C  C167  1  0.38782000  0.18082000  0.98884000  1
  C  C168  1  0.89957000  0.18867000  0.15579000  1
  C  C169  1  0.75201000  0.21651000  0.35477000  1
  C  C170  1  0.93800000  0.22320000  0.87490000  1
  C  C171  1  0.98626000  0.22736000  0.83032000  1
  C  C172  1  0.85002000  0.23312000  0.88204000  1
  C  C173  1  0.00896000  0.23566000  0.74482000  1
  C  C174  1  0.95042000  0.23712000  0.79204000  1
  C  C175  1  0.81133000  0.24403000  0.84421000  1
  C  C176  1  0.86201000  0.24551000  0.79897000  1
  C  C177  1  0.32329000  0.24799000  0.64523000  1
  C  C178  1  0.71651000  0.25201000  0.85477000  1
  C  C179  1  0.40649000  0.25449000  0.70103000  1
  C  C180  1  0.39957000  0.25597000  0.65579000  1
  C  C181  1  0.47958000  0.26288000  0.70796000  1
  C  C182  1  0.48944000  0.26434000  0.75518000  1
  C  C183  1  0.46518000  0.26688000  0.61796000  1
  C  C184  1  0.54394000  0.27264000  0.66968000  1
  C  C185  1  0.53610000  0.27680000  0.62510000  1
  C  C186  1  0.82329000  0.28349000  0.14523000  1
  C  C187  1  0.74403000  0.31133000  0.34421000  1
  C  C188  1  0.05748000  0.31918000  0.51116000  1
  C  C189  1  0.78349000  0.32329000  0.64523000  1
  C  C190  1  0.06502000  0.32622000  0.09174000  1
  C  C191  1  0.12673000  0.33873000  0.05241000  1
  C  C192  1  0.73312000  0.35002000  0.38204000  1
  C  C193  1  0.74551000  0.36201000  0.29897000  1
  C  C194  1  0.16127000  0.37327000  0.44759000  1
  C  C195  1  0.07353000  0.38553000  0.46901000  1
  C  C196  1  0.44252000  0.38782000  0.98884000  1
  C  C197  1  0.07215000  0.39265000  0.60335000  1
  C  C198  1  0.68867000  0.39957000  0.65579000  1
  C  C199  1  0.98920000  0.40250000  0.10950000  1
  C  C200  1  0.63799000  0.40649000  0.70103000  1
  C  C201  1  0.50180000  0.41040000  0.04860000  1
  C  C202  1  0.11447000  0.42647000  0.03099000  1
  C  C203  1  0.10735000  0.42785000  0.89665000  1
  C  C204  1  0.42647000  0.42807000  0.03099000  1
  C  C205  1  0.57215000  0.43185000  0.10335000  1
  C  C206  1  0.17378000  0.43498000  0.40826000  1
  C  C207  1  0.72320000  0.43800000  0.37490000  1
  C  C208  1  0.18082000  0.44252000  0.98884000  1
  C  C209  1  0.49045000  0.44525000  0.08745000  1
  C  C210  1  0.73712000  0.45042000  0.29204000  1
  C  C211  1  0.48626000  0.45606000  0.33032000  1
  C  C212  1  0.99820000  0.46080000  0.45140000  1
  C  C213  1  0.43800000  0.46390000  0.37490000  1
  C  C214  1  0.64998000  0.46518000  0.61796000  1
  C  C215  1  0.99045000  0.47685000  0.58745000  1
  C  C216  1  0.54958000  0.47958000  0.70796000  1
  C  C217  1  0.33873000  0.48213000  0.05241000  1
  C  C218  1  0.67378000  0.48298000  0.90826000  1
  C  C219  1  0.72736000  0.48626000  0.33032000  1
  C  C220  1  0.90250000  0.48920000  0.60950000  1
  C  C221  1  0.49104000  0.48944000  0.75518000  1
  C  C222  1  0.97685000  0.49045000  0.08745000  1
  C  C223  1  0.26434000  0.49104000  0.75518000  1
  C  C224  1  0.96080000  0.49820000  0.95140000  1
  C  C225  1  0.40250000  0.49880000  0.10950000  1
  C  C226  1  0.59750000  0.50120000  0.89050000  1
  C  C227  1  0.03920000  0.50180000  0.04860000  1
  C  C228  1  0.73566000  0.50896000  0.24482000  1
  C  C229  1  0.02315000  0.50955000  0.91255000  1
  C  C230  1  0.50896000  0.51056000  0.24482000  1
  C  C231  1  0.09750000  0.51080000  0.39050000  1
  C  C232  1  0.27264000  0.51374000  0.66968000  1
  C  C233  1  0.32622000  0.51702000  0.09174000  1
  C  C234  1  0.66127000  0.51787000  0.94759000  1
  C  C235  1  0.45042000  0.52042000  0.29204000  1
  C  C236  1  0.00955000  0.52315000  0.41255000  1
  C  C237  1  0.35002000  0.53482000  0.38204000  1
  C  C238  1  0.56200000  0.53610000  0.62510000  1
  C  C239  1  0.00180000  0.53920000  0.54860000  1
  C  C240  1  0.51374000  0.54394000  0.66968000  1
  C  C241  1  0.26288000  0.54958000  0.70796000  1
  C  C242  1  0.50955000  0.55475000  0.91255000  1
  C  C243  1  0.81918000  0.55748000  0.01116000  1
  C  C244  1  0.27680000  0.56200000  0.62510000  1
  C  C245  1  0.82622000  0.56502000  0.59174000  1
  C  C246  1  0.42785000  0.56815000  0.89665000  1
  C  C247  1  0.57353000  0.57193000  0.96901000  1
  C  C248  1  0.89265000  0.57215000  0.10335000  1
  C  C249  1  0.88553000  0.57353000  0.96901000  1
  C  C250  1  0.49820000  0.58960000  0.95140000  1
  C  C251  1  0.36201000  0.59351000  0.29897000  1
  C  C252  1  0.01080000  0.59750000  0.89050000  1
  C  C253  1  0.31133000  0.60043000  0.34421000  1
  C  C254  1  0.92785000  0.60735000  0.39665000  1
  C  C255  1  0.55748000  0.61218000  0.01116000  1
  C  C256  1  0.92647000  0.61447000  0.53099000  1
  C  C257  1  0.83873000  0.62673000  0.55241000  1
  C  C258  1  0.25449000  0.63799000  0.70103000  1
  C  C259  1  0.26688000  0.64998000  0.61796000  1
  C  C260  1  0.87327000  0.66127000  0.94759000  1
  C  C261  1  0.93498000  0.67378000  0.90826000  1
  C  C262  1  0.21651000  0.67671000  0.35477000  1
  C  C263  1  0.94252000  0.68082000  0.48884000  1
  C  C264  1  0.25597000  0.68867000  0.65579000  1
  C  C265  1  0.17671000  0.71651000  0.85477000  1
  C  C266  1  0.46390000  0.72320000  0.37490000  1
  C  C267  1  0.45606000  0.72736000  0.33032000  1
  C  C268  1  0.53482000  0.73312000  0.38204000  1
  C  C269  1  0.51056000  0.73566000  0.24482000  1
  C  C270  1  0.52042000  0.73712000  0.29204000  1
  C  C271  1  0.60043000  0.74403000  0.34421000  1
  C  C272  1  0.59351000  0.74551000  0.29897000  1
  C  C273  1  0.28349000  0.74799000  0.14523000  1
  C  C274  1  0.67671000  0.75201000  0.35477000  1
  C  C275  1  0.13799000  0.75449000  0.20103000  1
  C  C276  1  0.18867000  0.75597000  0.15579000  1
  C  C277  1  0.04958000  0.76288000  0.20796000  1
  C  C278  1  0.99104000  0.76434000  0.25518000  1
  C  C279  1  0.14998000  0.76688000  0.11796000  1
  C  C280  1  0.01374000  0.77264000  0.16968000  1
  C  C281  1  0.06200000  0.77680000  0.12510000  1
  C  C282  1  0.24799000  0.78349000  0.64523000  1
  C  C283  1  0.10043000  0.81133000  0.84421000  1
  C  C284  1  0.61218000  0.81918000  0.01116000  1
  C  C285  1  0.74799000  0.82329000  0.14523000  1
  C  C286  1  0.01702000  0.82622000  0.59174000  1
  C  C287  1  0.98213000  0.83873000  0.55241000  1
  C  C288  1  0.03482000  0.85002000  0.88204000  1
  C  C289  1  0.09351000  0.86201000  0.79897000  1
  C  C290  1  0.51787000  0.87327000  0.94759000  1
  C  C291  1  0.57193000  0.88553000  0.96901000  1
  C  C292  1  0.68082000  0.88782000  0.48884000  1
  C  C293  1  0.43185000  0.89265000  0.10335000  1
  C  C294  1  0.75597000  0.89957000  0.15579000  1
  C  C295  1  0.99880000  0.90250000  0.60950000  1
  C  C296  1  0.75449000  0.90649000  0.20103000  1
  C  C297  1  0.53920000  0.91040000  0.54860000  1
  C  C298  1  0.92807000  0.92647000  0.53099000  1
  C  C299  1  0.06815000  0.92785000  0.39665000  1
  C  C300  1  0.61447000  0.92807000  0.53099000  1
  C  C301  1  0.39265000  0.93185000  0.60335000  1
  C  C302  1  0.48298000  0.93498000  0.90826000  1
  C  C303  1  0.96390000  0.93800000  0.87490000  1
  C  C304  1  0.88782000  0.94252000  0.48884000  1
  C  C305  1  0.47685000  0.94525000  0.58745000  1
  C  C306  1  0.02042000  0.95042000  0.79204000  1
  C  C307  1  0.22736000  0.95606000  0.83032000  1
  C  C308  1  0.58960000  0.96080000  0.95140000  1
  C  C309  1  0.22320000  0.96390000  0.87490000  1
  C  C310  1  0.76688000  0.96518000  0.11796000  1
  C  C311  1  0.44525000  0.97685000  0.08745000  1
  C  C312  1  0.76288000  0.97958000  0.20796000  1
  C  C313  1  0.62673000  0.98213000  0.55241000  1
  C  C314  1  0.43498000  0.98298000  0.40826000  1
  C  C315  1  0.95606000  0.98626000  0.83032000  1
  C  C316  1  0.49880000  0.98920000  0.10950000  1
  C  C317  1  0.76434000  0.98944000  0.25518000  1
  C  C318  1  0.94525000  0.99045000  0.58745000  1
  C  C319  1  0.98944000  0.99104000  0.25518000  1
  C  C320  1  0.08960000  0.99820000  0.45140000  1
  C  C321  1  0.48920000  0.99880000  0.60950000  1
  O  O322  1  0.92427000  0.00287000  0.28839000  1
  O  O323  1  0.16362000  0.01302000  0.61874000  1
  O  O324  1  0.82084000  0.02014000  0.48008000  1
  O  O325  1  0.66082000  0.03952000  0.35954000  1
  O  O326  1  0.96048000  0.05988000  0.64046000  1
  O  O327  1  0.74606000  0.06916000  0.26022000  1
  O  O328  1  0.93084000  0.07544000  0.73978000  1
  O  O329  1  0.21553000  0.07573000  0.71161000  1
  O  O330  1  0.26606000  0.07766000  0.53462000  1
  O  O331  1  0.62224000  0.10554000  0.42218000  1
  O  O332  1  0.07766000  0.12166000  0.53462000  1
  O  O333  1  0.60554000  0.12224000  0.92218000  1
  O  O334  1  0.89446000  0.14996000  0.57782000  1
  O  O335  1  0.53952000  0.16082000  0.85954000  1
  O  O336  1  0.20462000  0.16362000  0.61874000  1
  O  O337  1  0.25764000  0.16764000  0.89698000  1
  O  O338  1  0.75764000  0.17774000  0.39698000  1
  O  O339  1  0.32084000  0.17894000  0.98008000  1
  O  O340  1  0.32106000  0.17916000  0.51992000  1
  O  O341  1  0.75235000  0.18285000  0.32255000  1
  O  O342  1  0.01302000  0.20462000  0.61874000  1
  O  O343  1  0.99713000  0.21553000  0.71161000  1
  O  O344  1  0.42234000  0.23394000  0.96538000  1
  O  O345  1  0.25235000  0.24225000  0.82255000  1
  O  O346  1  0.33236000  0.24236000  0.60302000  1
  O  O347  1  0.56916000  0.24606000  0.76022000  1
  O  O348  1  0.25775000  0.24765000  0.67745000  1
  O  O349  1  0.68285000  0.25235000  0.82255000  1
  O  O350  1  0.07544000  0.25394000  0.73978000  1
  O  O351  1  0.67774000  0.25764000  0.89698000  1
  O  O352  1  0.81715000  0.25775000  0.67745000  1
  O  O353  1  0.12166000  0.26606000  0.53462000  1
  O  O354  1  0.42427000  0.28447000  0.78839000  1
  O  O355  1  0.33638000  0.29538000  0.88126000  1
  O  O356  1  0.75775000  0.31715000  0.17745000  1
  O  O357  1  0.52014000  0.32084000  0.98008000  1
  O  O358  1  0.97986000  0.32106000  0.51992000  1
  O  O359  1  0.83236000  0.32226000  0.10302000  1
  O  O360  1  0.82226000  0.33236000  0.60302000  1
  O  O361  1  0.48698000  0.33638000  0.88126000  1
  O  O362  1  0.05988000  0.33918000  0.64046000  1
  O  O363  1  0.12224000  0.35004000  0.92218000  1
  O  O364  1  0.14996000  0.37776000  0.57782000  1
  O  O365  1  0.23394000  0.37834000  0.96538000  1
  O  O366  1  0.64996000  0.39446000  0.07782000  1
  O  O367  1  0.37834000  0.42234000  0.96538000  1
  O  O368  1  0.50287000  0.42427000  0.78839000  1
  O  O369  1  0.24606000  0.42456000  0.76022000  1
  O  O370  1  0.57544000  0.43084000  0.23978000  1
  O  O371  1  0.16082000  0.44012000  0.85954000  1
  O  O372  1  0.55988000  0.46048000  0.14046000  1
  O  O373  1  0.82106000  0.47986000  0.01992000  1
  O  O374  1  0.29538000  0.48698000  0.88126000  1
  O  O375  1  0.71553000  0.49713000  0.21161000  1
  O  O376  1  0.28447000  0.50287000  0.78839000  1
  O  O377  1  0.70462000  0.51302000  0.11874000  1
  O  O378  1  0.17894000  0.52014000  0.98008000  1
  O  O379  1  0.44012000  0.53952000  0.85954000  1
  O  O380  1  0.83918000  0.55988000  0.14046000  1
  O  O381  1  0.42456000  0.56916000  0.76022000  1
  O  O382  1  0.75394000  0.57544000  0.23978000  1
  O  O383  1  0.49713000  0.57573000  0.21161000  1
  O  O384  1  0.62166000  0.57766000  0.03462000  1
  O  O385  1  0.35004000  0.60554000  0.92218000  1
  O  O386  1  0.76606000  0.62166000  0.03462000  1
  O  O387  1  0.85004000  0.62224000  0.42218000  1
  O  O388  1  0.87776000  0.64996000  0.07782000  1
  O  O389  1  0.94012000  0.66082000  0.35954000  1
  O  O390  1  0.51302000  0.66362000  0.11874000  1
  O  O391  1  0.17774000  0.66764000  0.39698000  1
  O  O392  1  0.16764000  0.67774000  0.89698000  1
  O  O393  1  0.02014000  0.67894000  0.48008000  1
  O  O394  1  0.47986000  0.67916000  0.01992000  1
  O  O395  1  0.24225000  0.68285000  0.82255000  1
  O  O396  1  0.66362000  0.70462000  0.11874000  1
  O  O397  1  0.57573000  0.71553000  0.21161000  1
  O  O398  1  0.87834000  0.73394000  0.46538000  1
  O  O399  1  0.18285000  0.74225000  0.32255000  1
  O  O400  1  0.32226000  0.74236000  0.10302000  1
  O  O401  1  0.92456000  0.74606000  0.26022000  1
  O  O402  1  0.31715000  0.74765000  0.17745000  1
  O  O403  1  0.74225000  0.75235000  0.32255000  1
  O  O404  1  0.43084000  0.75394000  0.23978000  1
  O  O405  1  0.66764000  0.75764000  0.39698000  1
  O  O406  1  0.74765000  0.75775000  0.17745000  1
  O  O407  1  0.57766000  0.76606000  0.03462000  1
  O  O408  1  0.00287000  0.78447000  0.28839000  1
  O  O409  1  0.98698000  0.79538000  0.38126000  1
  O  O410  1  0.24765000  0.81715000  0.67745000  1
  O  O411  1  0.67894000  0.82084000  0.48008000  1
  O  O412  1  0.67916000  0.82106000  0.01992000  1
  O  O413  1  0.24236000  0.82226000  0.60302000  1
  O  O414  1  0.74236000  0.83236000  0.10302000  1
  O  O415  1  0.79538000  0.83638000  0.38126000  1
  O  O416  1  0.46048000  0.83918000  0.14046000  1
  O  O417  1  0.10554000  0.85004000  0.42218000  1
  O  O418  1  0.39446000  0.87776000  0.07782000  1
  O  O419  1  0.92234000  0.87834000  0.46538000  1
  O  O420  1  0.37776000  0.89446000  0.57782000  1
  O  O421  1  0.73394000  0.92234000  0.46538000  1
  O  O422  1  0.78447000  0.92427000  0.28839000  1
  O  O423  1  0.06916000  0.92456000  0.26022000  1
  O  O424  1  0.25394000  0.93084000  0.73978000  1
  O  O425  1  0.03952000  0.94012000  0.35954000  1
  O  O426  1  0.33918000  0.96048000  0.64046000  1
  O  O427  1  0.17916000  0.97986000  0.51992000  1
  O  O428  1  0.83638000  0.98698000  0.38126000  1
  O  O429  1  0.07573000  0.99713000  0.71161000  1
