# generated using pymatgen
data_ZnH11(C7O2)3
_symmetry_space_group_name_H-M   'P 1'
_cell_length_a   8.45580000
_cell_length_b   16.71530000
_cell_length_c   35.49430000
_cell_angle_alpha   90.00000000
_cell_angle_beta   90.00000000
_cell_angle_gamma   90.00000000
_symmetry_Int_Tables_number   1
_chemical_formula_structural   ZnH11(C7O2)3
_chemical_formula_sum   'Zn8 H88 C168 O48'
_cell_volume   5016.80815274
_cell_formula_units_Z   8
loop_
 _symmetry_equiv_pos_site_id
 _symmetry_equiv_pos_as_xyz
  1  'x, y, z'
loop_
 _atom_site_type_symbol
 _atom_site_label
 _atom_site_symmetry_multiplicity
 _atom_site_fract_x
 _atom_site_fract_y
 _atom_site_fract_z
 _atom_site_occupancy
  Zn  Zn0  1  0.88732000  0.97803000  0.05021000  1
  Zn  Zn1  1  0.11268000  0.97803000  0.55021000  1
  Zn  Zn2  1  0.61268000  0.52197000  0.55021000  1
  Zn  Zn3  1  0.38732000  0.52197000  0.05021000  1
  Zn  Zn4  1  0.61268000  0.47803000  0.94978000  1
  Zn  Zn5  1  0.38732000  0.47803000  0.44979000  1
  Zn  Zn6  1  0.88732000  0.02197000  0.44979000  1
  Zn  Zn7  1  0.11268000  0.02197000  0.94978000  1
  H  H8  1  0.87560000  0.93160000  0.77890000  1
  H  H9  1  0.12440000  0.93160000  0.27890000  1
  H  H10  1  0.82330000  0.91550000  0.84300000  1
  H  H11  1  0.17670000  0.91550000  0.34300000  1
  H  H12  1  0.87500000  0.90950000  0.65480000  1
  H  H13  1  0.12500000  0.90950000  0.15480000  1
  H  H14  1  0.90070000  0.90890000  0.90480000  1
  H  H15  1  0.09930000  0.90890000  0.40480000  1
  H  H16  1  0.81990000  0.88810000  0.71690000  1
  H  H17  1  0.18010000  0.88810000  0.21690000  1
  H  H18  1  0.68810000  0.82580000  0.38560000  1
  H  H19  1  0.31190000  0.82580000  0.88560000  1
  H  H20  1  0.69830000  0.80970000  0.16680000  1
  H  H21  1  0.30170000  0.80970000  0.66680000  1
  H  H22  1  0.53820000  0.80420000  0.84040000  1
  H  H23  1  0.46180000  0.80420000  0.34040000  1
  H  H24  1  0.58340000  0.78800000  0.77650000  1
  H  H25  1  0.41660000  0.78800000  0.27650000  1
  H  H26  1  0.75180000  0.78500000  0.22880000  1
  H  H27  1  0.24820000  0.78500000  0.72880000  1
  H  H28  1  0.76300000  0.76700000  0.98890000  1
  H  H29  1  0.23700000  0.76700000  0.48890000  1
  H  H30  1  0.73700000  0.73300000  0.48890000  1
  H  H31  1  0.26300000  0.73300000  0.98890000  1
  H  H32  1  0.74820000  0.71500000  0.72880000  1
  H  H33  1  0.25180000  0.71500000  0.22880000  1
  H  H34  1  0.91660000  0.71200000  0.27650000  1
  H  H35  1  0.08340000  0.71200000  0.77650000  1
  H  H36  1  0.96180000  0.69580000  0.34040000  1
  H  H37  1  0.03820000  0.69580000  0.84040000  1
  H  H38  1  0.80170000  0.69030000  0.66680000  1
  H  H39  1  0.19830000  0.69030000  0.16680000  1
  H  H40  1  0.81190000  0.67420000  0.88560000  1
  H  H41  1  0.18810000  0.67420000  0.38560000  1
  H  H42  1  0.68010000  0.61190000  0.21690000  1
  H  H43  1  0.31990000  0.61190000  0.71690000  1
  H  H44  1  0.59930000  0.59110000  0.40480000  1
  H  H45  1  0.40070000  0.59110000  0.90480000  1
  H  H46  1  0.62500000  0.59050000  0.15480000  1
  H  H47  1  0.37500000  0.59050000  0.65480000  1
  H  H48  1  0.67670000  0.58450000  0.34300000  1
  H  H49  1  0.32330000  0.58450000  0.84300000  1
  H  H50  1  0.62440000  0.56840000  0.27890000  1
  H  H51  1  0.37560000  0.56840000  0.77890000  1
  H  H52  1  0.62440000  0.43160000  0.22110000  1
  H  H53  1  0.37560000  0.43160000  0.72110000  1
  H  H54  1  0.67670000  0.41550000  0.15700000  1
  H  H55  1  0.32330000  0.41550000  0.65700000  1
  H  H56  1  0.62500000  0.40950000  0.34520000  1
  H  H57  1  0.37500000  0.40950000  0.84520000  1
  H  H58  1  0.59930000  0.40890000  0.09520000  1
  H  H59  1  0.40070000  0.40890000  0.59520000  1
  H  H60  1  0.68010000  0.38810000  0.28310000  1
  H  H61  1  0.31990000  0.38810000  0.78310000  1
  H  H62  1  0.81190000  0.32580000  0.61440000  1
  H  H63  1  0.18810000  0.32580000  0.11440000  1
  H  H64  1  0.80170000  0.30970000  0.83320000  1
  H  H65  1  0.19830000  0.30970000  0.33320000  1
  H  H66  1  0.96180000  0.30420000  0.15960000  1
  H  H67  1  0.03820000  0.30420000  0.65960000  1
  H  H68  1  0.91660000  0.28800000  0.22350000  1
  H  H69  1  0.08340000  0.28800000  0.72350000  1
  H  H70  1  0.74820000  0.28500000  0.77120000  1
  H  H71  1  0.25180000  0.28500000  0.27120000  1
  H  H72  1  0.73700000  0.26700000  0.01110000  1
  H  H73  1  0.26300000  0.26700000  0.51110000  1
  H  H74  1  0.76300000  0.23300000  0.51110000  1
  H  H75  1  0.23700000  0.23300000  0.01110000  1
  H  H76  1  0.75180000  0.21500000  0.27120000  1
  H  H77  1  0.24820000  0.21500000  0.77120000  1
  H  H78  1  0.58340000  0.21200000  0.72350000  1
  H  H79  1  0.41660000  0.21200000  0.22350000  1
  H  H80  1  0.53820000  0.19580000  0.65960000  1
  H  H81  1  0.46180000  0.19580000  0.15960000  1
  H  H82  1  0.69830000  0.19030000  0.33320000  1
  H  H83  1  0.30170000  0.19030000  0.83320000  1
  H  H84  1  0.68810000  0.17420000  0.11440000  1
  H  H85  1  0.31190000  0.17420000  0.61440000  1
  H  H86  1  0.81990000  0.11190000  0.78310000  1
  H  H87  1  0.18010000  0.11190000  0.28310000  1
  H  H88  1  0.90070000  0.09110000  0.59520000  1
  H  H89  1  0.09930000  0.09110000  0.09520000  1
  H  H90  1  0.87500000  0.09050000  0.84520000  1
  H  H91  1  0.12500000  0.09050000  0.34520000  1
  H  H92  1  0.82330000  0.08450000  0.65700000  1
  H  H93  1  0.17670000  0.08450000  0.15700000  1
  H  H94  1  0.87560000  0.06840000  0.72110000  1
  H  H95  1  0.12440000  0.06840000  0.22110000  1
  C  C96  1  0.85060000  0.91680000  0.97718000  1
  C  C97  1  0.14940000  0.91680000  0.47718000  1
  C  C98  1  0.94920000  0.88677000  0.66852000  1
  C  C99  1  0.05080000  0.88677000  0.16852000  1
  C  C100  1  0.86070000  0.88628000  0.11383000  1
  C  C101  1  0.13930000  0.88628000  0.61383000  1
  C  C102  1  0.90830000  0.88349000  0.79039000  1
  C  C103  1  0.09170000  0.88349000  0.29039000  1
  C  C104  1  0.87160000  0.87406000  0.82815000  1
  C  C105  1  0.12840000  0.87406000  0.32815000  1
  C  C106  1  0.91640000  0.87276000  0.70638000  1
  C  C107  1  0.08360000  0.87276000  0.20638000  1
  C  C108  1  0.77000000  0.87049000  0.45431000  1
  C  C109  1  0.23000000  0.87049000  0.95431000  1
  C  C110  1  0.90730000  0.86333000  0.15344000  1
  C  C111  1  0.09270000  0.86333000  0.65344000  1
  C  C112  1  0.87320000  0.85841000  0.91243000  1
  C  C113  1  0.12680000  0.85841000  0.41243000  1
  C  C114  1  0.83450000  0.84855000  0.95036000  1
  C  C115  1  0.16550000  0.84855000  0.45036000  1
  C  C116  1  0.97410000  0.83524000  0.22989000  1
  C  C117  1  0.02590000  0.83524000  0.72989000  1
  C  C118  1  0.98900000  0.82416000  0.77046000  1
  C  C119  1  0.01100000  0.82416000  0.27046000  1
  C  C120  1  0.79870000  0.82390000  0.17634000  1
  C  C121  1  0.20130000  0.82390000  0.67634000  1
  C  C122  1  0.83230000  0.81010000  0.21413000  1
  C  C123  1  0.16770000  0.81010000  0.71413000  1
  C  C124  1  0.91450000  0.80445000  0.84745000  1
  C  C125  1  0.08550000  0.80445000  0.34745000  1
  C  C126  1  0.87070000  0.79389000  0.88782000  1
  C  C127  1  0.12930000  0.79389000  0.38782000  1
  C  C128  1  0.71610000  0.79134000  0.43921000  1
  C  C129  1  0.28390000  0.79134000  0.93921000  1
  C  C130  1  0.67360000  0.78100000  0.40157000  1
  C  C131  1  0.32640000  0.78100000  0.90157000  1
  C  C132  1  0.78810000  0.77374000  0.96352000  1
  C  C133  1  0.21190000  0.77374000  0.46352000  1
  C  C134  1  0.96490000  0.75555000  0.29003000  1
  C  C135  1  0.03510000  0.75555000  0.79003000  1
  C  C136  1  0.50290000  0.75412000  0.32788000  1
  C  C137  1  0.49710000  0.75412000  0.82788000  1
  C  C138  1  0.99710000  0.74588000  0.82788000  1
  C  C139  1  0.00290000  0.74588000  0.32788000  1
  C  C140  1  0.53510000  0.74445000  0.79003000  1
  C  C141  1  0.46490000  0.74445000  0.29003000  1
  C  C142  1  0.71190000  0.72626000  0.46352000  1
  C  C143  1  0.28810000  0.72626000  0.96352000  1
  C  C144  1  0.82640000  0.71900000  0.90157000  1
  C  C145  1  0.17360000  0.71900000  0.40157000  1
  C  C146  1  0.78390000  0.70866000  0.93921000  1
  C  C147  1  0.21610000  0.70866000  0.43921000  1
  C  C148  1  0.62930000  0.70611000  0.38782000  1
  C  C149  1  0.37070000  0.70611000  0.88782000  1
  C  C150  1  0.58550000  0.69555000  0.34745000  1
  C  C151  1  0.41450000  0.69555000  0.84745000  1
  C  C152  1  0.66770000  0.68990000  0.71413000  1
  C  C153  1  0.33230000  0.68990000  0.21413000  1
  C  C154  1  0.70130000  0.67610000  0.67634000  1
  C  C155  1  0.29870000  0.67610000  0.17634000  1
  C  C156  1  0.51100000  0.67584000  0.27046000  1
  C  C157  1  0.48900000  0.67584000  0.77046000  1
  C  C158  1  0.52590000  0.66476000  0.72989000  1
  C  C159  1  0.47410000  0.66476000  0.22989000  1
  C  C160  1  0.66550000  0.65145000  0.45036000  1
  C  C161  1  0.33450000  0.65145000  0.95036000  1
  C  C162  1  0.62680000  0.64159000  0.41243000  1
  C  C163  1  0.37320000  0.64159000  0.91243000  1
  C  C164  1  0.59270000  0.63667000  0.65344000  1
  C  C165  1  0.40730000  0.63667000  0.15344000  1
  C  C166  1  0.73000000  0.62951000  0.95431000  1
  C  C167  1  0.27000000  0.62951000  0.45431000  1
  C  C168  1  0.58360000  0.62724000  0.20638000  1
  C  C169  1  0.41640000  0.62724000  0.70638000  1
  C  C170  1  0.62840000  0.62594000  0.32815000  1
  C  C171  1  0.37160000  0.62594000  0.82815000  1
  C  C172  1  0.59170000  0.61651000  0.29039000  1
  C  C173  1  0.40830000  0.61651000  0.79039000  1
  C  C174  1  0.63930000  0.61372000  0.61383000  1
  C  C175  1  0.36070000  0.61372000  0.11383000  1
  C  C176  1  0.55080000  0.61323000  0.16852000  1
  C  C177  1  0.44920000  0.61323000  0.66852000  1
  C  C178  1  0.64940000  0.58320000  0.47718000  1
  C  C179  1  0.35060000  0.58320000  0.97718000  1
  C  C180  1  0.64940000  0.41680000  0.02282000  1
  C  C181  1  0.35060000  0.41680000  0.52282000  1
  C  C182  1  0.55080000  0.38677000  0.33148000  1
  C  C183  1  0.44920000  0.38677000  0.83148000  1
  C  C184  1  0.63930000  0.38628000  0.88617000  1
  C  C185  1  0.36070000  0.38628000  0.38617000  1
  C  C186  1  0.59170000  0.38349000  0.20961000  1
  C  C187  1  0.40830000  0.38349000  0.70961000  1
  C  C188  1  0.62840000  0.37406000  0.17185000  1
  C  C189  1  0.37160000  0.37406000  0.67185000  1
  C  C190  1  0.58360000  0.37276000  0.29362000  1
  C  C191  1  0.41640000  0.37276000  0.79362000  1
  C  C192  1  0.73000000  0.37049000  0.54569000  1
  C  C193  1  0.27000000  0.37049000  0.04569000  1
  C  C194  1  0.59270000  0.36333000  0.84656000  1
  C  C195  1  0.40730000  0.36333000  0.34656000  1
  C  C196  1  0.62680000  0.35841000  0.08757000  1
  C  C197  1  0.37320000  0.35841000  0.58757000  1
  C  C198  1  0.66550000  0.34855000  0.04964000  1
  C  C199  1  0.33450000  0.34855000  0.54964000  1
  C  C200  1  0.52590000  0.33524000  0.77011000  1
  C  C201  1  0.47410000  0.33524000  0.27011000  1
  C  C202  1  0.51100000  0.32416000  0.22954000  1
  C  C203  1  0.48900000  0.32416000  0.72954000  1
  C  C204  1  0.70130000  0.32390000  0.82366000  1
  C  C205  1  0.29870000  0.32390000  0.32366000  1
  C  C206  1  0.66770000  0.31010000  0.78587000  1
  C  C207  1  0.33230000  0.31010000  0.28587000  1
  C  C208  1  0.58550000  0.30445000  0.15255000  1
  C  C209  1  0.41450000  0.30445000  0.65255000  1
  C  C210  1  0.62930000  0.29389000  0.11218000  1
  C  C211  1  0.37070000  0.29389000  0.61218000  1
  C  C212  1  0.78390000  0.29134000  0.56079000  1
  C  C213  1  0.21610000  0.29134000  0.06079000  1
  C  C214  1  0.82640000  0.28100000  0.59843000  1
  C  C215  1  0.17360000  0.28100000  0.09843000  1
  C  C216  1  0.71190000  0.27374000  0.03648000  1
  C  C217  1  0.28810000  0.27374000  0.53648000  1
  C  C218  1  0.53510000  0.25555000  0.70997000  1
  C  C219  1  0.46490000  0.25555000  0.20997000  1
  C  C220  1  0.99710000  0.25412000  0.67212000  1
  C  C221  1  0.00290000  0.25412000  0.17212000  1
  C  C222  1  0.50290000  0.24588000  0.17212000  1
  C  C223  1  0.49710000  0.24588000  0.67212000  1
  C  C224  1  0.96490000  0.24445000  0.20997000  1
  C  C225  1  0.03510000  0.24445000  0.70997000  1
  C  C226  1  0.78810000  0.22626000  0.53648000  1
  C  C227  1  0.21190000  0.22626000  0.03648000  1
  C  C228  1  0.67360000  0.21900000  0.09843000  1
  C  C229  1  0.32640000  0.21900000  0.59843000  1
  C  C230  1  0.71610000  0.20866000  0.06079000  1
  C  C231  1  0.28390000  0.20866000  0.56079000  1
  C  C232  1  0.87070000  0.20611000  0.61218000  1
  C  C233  1  0.12930000  0.20611000  0.11218000  1
  C  C234  1  0.91450000  0.19555000  0.65255000  1
  C  C235  1  0.08550000  0.19555000  0.15255000  1
  C  C236  1  0.83230000  0.18990000  0.28587000  1
  C  C237  1  0.16770000  0.18990000  0.78587000  1
  C  C238  1  0.79870000  0.17610000  0.32366000  1
  C  C239  1  0.20130000  0.17610000  0.82366000  1
  C  C240  1  0.98900000  0.17584000  0.72954000  1
  C  C241  1  0.01100000  0.17584000  0.22954000  1
  C  C242  1  0.97410000  0.16476000  0.27011000  1
  C  C243  1  0.02590000  0.16476000  0.77011000  1
  C  C244  1  0.83450000  0.15145000  0.54964000  1
  C  C245  1  0.16550000  0.15145000  0.04964000  1
  C  C246  1  0.87320000  0.14159000  0.58757000  1
  C  C247  1  0.12680000  0.14159000  0.08757000  1
  C  C248  1  0.90730000  0.13667000  0.34656000  1
  C  C249  1  0.09270000  0.13667000  0.84656000  1
  C  C250  1  0.77000000  0.12951000  0.04569000  1
  C  C251  1  0.23000000  0.12951000  0.54569000  1
  C  C252  1  0.91640000  0.12724000  0.79362000  1
  C  C253  1  0.08360000  0.12724000  0.29362000  1
  C  C254  1  0.87160000  0.12594000  0.67185000  1
  C  C255  1  0.12840000  0.12594000  0.17185000  1
  C  C256  1  0.90830000  0.11651000  0.70961000  1
  C  C257  1  0.09170000  0.11651000  0.20961000  1
  C  C258  1  0.86070000  0.11372000  0.38617000  1
  C  C259  1  0.13930000  0.11372000  0.88617000  1
  C  C260  1  0.94920000  0.11323000  0.83148000  1
  C  C261  1  0.05080000  0.11323000  0.33148000  1
  C  C262  1  0.85060000  0.08320000  0.52282000  1
  C  C263  1  0.14940000  0.08320000  0.02282000  1
  O  O264  1  0.89760000  0.98309000  0.96473000  1
  O  O265  1  0.10240000  0.98309000  0.46473000  1
  O  O266  1  0.76860000  0.92988000  0.43130000  1
  O  O267  1  0.23140000  0.92988000  0.93130000  1
  O  O268  1  0.96870000  0.92178000  0.09456000  1
  O  O269  1  0.03130000  0.92178000  0.59456000  1
  O  O270  1  0.81330000  0.90494000  0.01118000  1
  O  O271  1  0.18670000  0.90494000  0.51118000  1
  O  O272  1  0.81700000  0.87501000  0.48703000  1
  O  O273  1  0.18300000  0.87501000  0.98703000  1
  O  O274  1  0.72750000  0.87383000  0.10239000  1
  O  O275  1  0.27250000  0.87383000  0.60239000  1
  O  O276  1  0.77250000  0.62617000  0.60239000  1
  O  O277  1  0.22750000  0.62617000  0.10239000  1
  O  O278  1  0.68300000  0.62499000  0.98703000  1
  O  O279  1  0.31700000  0.62499000  0.48703000  1
  O  O280  1  0.68670000  0.59506000  0.51118000  1
  O  O281  1  0.31330000  0.59506000  0.01118000  1
  O  O282  1  0.53130000  0.57822000  0.59456000  1
  O  O283  1  0.46870000  0.57822000  0.09456000  1
  O  O284  1  0.73140000  0.57012000  0.93130000  1
  O  O285  1  0.26860000  0.57012000  0.43130000  1
  O  O286  1  0.60240000  0.51691000  0.46473000  1
  O  O287  1  0.39760000  0.51691000  0.96473000  1
  O  O288  1  0.60240000  0.48309000  0.03527000  1
  O  O289  1  0.39760000  0.48309000  0.53527000  1
  O  O290  1  0.73140000  0.42988000  0.56870000  1
  O  O291  1  0.26860000  0.42988000  0.06870000  1
  O  O292  1  0.53130000  0.42178000  0.90544000  1
  O  O293  1  0.46870000  0.42178000  0.40544000  1
  O  O294  1  0.68670000  0.40494000  0.98882000  1
  O  O295  1  0.31330000  0.40494000  0.48882000  1
  O  O296  1  0.68300000  0.37501000  0.51297000  1
  O  O297  1  0.31700000  0.37501000  0.01297000  1
  O  O298  1  0.77250000  0.37383000  0.89761000  1
  O  O299  1  0.22750000  0.37383000  0.39761000  1
  O  O300  1  0.72750000  0.12617000  0.39761000  1
  O  O301  1  0.27250000  0.12617000  0.89761000  1
  O  O302  1  0.81700000  0.12499000  0.01297000  1
  O  O303  1  0.18300000  0.12499000  0.51297000  1
  O  O304  1  0.81330000  0.09506000  0.48882000  1
  O  O305  1  0.18670000  0.09506000  0.98882000  1
  O  O306  1  0.96870000  0.07822000  0.40544000  1
  O  O307  1  0.03130000  0.07822000  0.90544000  1
  O  O308  1  0.76860000  0.07012000  0.06870000  1
  O  O309  1  0.23140000  0.07012000  0.56870000  1
  O  O310  1  0.89760000  0.01691000  0.53527000  1
  O  O311  1  0.10240000  0.01691000  0.03527000  1
