# generated using pymatgen
data_Co3H12(C11O5)2
_symmetry_space_group_name_H-M   'P 1'
_cell_length_a   6.33890000
_cell_length_b   10.84710000
_cell_length_c   16.88390000
_cell_angle_alpha   105.59200000
_cell_angle_beta   90.00000000
_cell_angle_gamma   90.00000000
_symmetry_Int_Tables_number   1
_chemical_formula_structural   Co3H12(C11O5)2
_chemical_formula_sum   'Co6 H24 C44 O20'
_cell_volume   1118.19317545
_cell_formula_units_Z   2
loop_
 _symmetry_equiv_pos_site_id
 _symmetry_equiv_pos_as_xyz
  1  'x, y, z'
loop_
 _atom_site_type_symbol
 _atom_site_label
 _atom_site_symmetry_multiplicity
 _atom_site_fract_x
 _atom_site_fract_y
 _atom_site_fract_z
 _atom_site_occupancy
  Co  Co0  1  0.00000000  0.00000000  0.50000000  1
  Co  Co1  1  0.50000000  1.00000000  1.00000000  1
  Co  Co2  1  0.49694000  0.96581000  0.58395000  1
  Co  Co3  1  0.00306000  0.96581000  0.08395000  1
  Co  Co4  1  0.99694000  0.03419000  0.91605000  1
  Co  Co5  1  0.50306000  0.03419000  0.41605000  1
  H  H6  1  0.81600000  0.88000000  0.96100000  1
  H  H7  1  0.68400000  0.88000000  0.46100000  1
  H  H8  1  0.39040000  0.71510000  0.19970000  1
  H  H9  1  0.10960000  0.71510000  0.69970000  1
  H  H10  1  0.82670000  0.69780000  0.30260000  1
  H  H11  1  0.67330000  0.69780000  0.80260000  1
  H  H12  1  0.88510000  0.64520000  0.43200000  1
  H  H13  1  0.61490000  0.64520000  0.93200000  1
  H  H14  1  0.46810000  0.54960000  0.41120000  1
  H  H15  1  0.03190000  0.54960000  0.91120000  1
  H  H16  1  0.76320000  0.52650000  0.69510000  1
  H  H17  1  0.73680000  0.52650000  0.19510000  1
  H  H18  1  0.26320000  0.47350000  0.80490000  1
  H  H19  1  0.23680000  0.47350000  0.30490000  1
  H  H20  1  0.96810000  0.45040000  0.08880000  1
  H  H21  1  0.53190000  0.45040000  0.58880000  1
  H  H22  1  0.38510000  0.35480000  0.06800000  1
  H  H23  1  0.11490000  0.35480000  0.56800000  1
  H  H24  1  0.32670000  0.30220000  0.19740000  1
  H  H25  1  0.17330000  0.30220000  0.69740000  1
  H  H26  1  0.89040000  0.28490000  0.30030000  1
  H  H27  1  0.60960000  0.28490000  0.80030000  1
  H  H28  1  0.31600000  0.12000000  0.53900000  1
  H  H29  1  0.18400000  0.12000000  0.03900000  1
  C  C30  1  0.31420000  0.83100000  0.83600000  1
  C  C31  1  0.18580000  0.83100000  0.33600000  1
  C  C32  1  0.32790000  0.75720000  0.03560000  1
  C  C33  1  0.17210000  0.75720000  0.53560000  1
  C  C34  1  0.38060000  0.72320000  0.76450000  1
  C  C35  1  0.11940000  0.72320000  0.26450000  1
  C  C36  1  0.25800000  0.67790000  0.19880000  1
  C  C37  1  0.24200000  0.67790000  0.69880000  1
  C  C38  1  0.92340000  0.66660000  0.26060000  1
  C  C39  1  0.57660000  0.66660000  0.76060000  1
  C  C40  1  0.41690000  0.62300000  0.01890000  1
  C  C41  1  0.08310000  0.62300000  0.51890000  1
  C  C42  1  0.93210000  0.58640000  0.45920000  1
  C  C43  1  0.56790000  0.58640000  0.95920000  1
  C  C44  1  0.30030000  0.57750000  0.63190000  1
  C  C45  1  0.19970000  0.57750000  0.13190000  1
  C  C46  1  0.86820000  0.56490000  0.19570000  1
  C  C47  1  0.63180000  0.56490000  0.69570000  1
  C  C48  1  0.34680000  0.53660000  0.06190000  1
  C  C49  1  0.15320000  0.53660000  0.56190000  1
  C  C50  1  0.49440000  0.52000000  0.63210000  1
  C  C51  1  0.00560000  0.52000000  0.13210000  1
  C  C52  1  0.99440000  0.48000000  0.86790000  1
  C  C53  1  0.50560000  0.48000000  0.36790000  1
  C  C54  1  0.84680000  0.46340000  0.43810000  1
  C  C55  1  0.65320000  0.46340000  0.93810000  1
  C  C56  1  0.36820000  0.43510000  0.30430000  1
  C  C57  1  0.13180000  0.43510000  0.80430000  1
  C  C58  1  0.80030000  0.42250000  0.86810000  1
  C  C59  1  0.69970000  0.42250000  0.36810000  1
  C  C60  1  0.43210000  0.41360000  0.04080000  1
  C  C61  1  0.06790000  0.41360000  0.54080000  1
  C  C62  1  0.91690000  0.37700000  0.48110000  1
  C  C63  1  0.58310000  0.37700000  0.98110000  1
  C  C64  1  0.42340000  0.33333333  0.23940000  1
  C  C65  1  0.07660000  0.33333333  0.73940000  1
  C  C66  1  0.75800000  0.32210000  0.30120000  1
  C  C67  1  0.74200000  0.32210000  0.80120000  1
  C  C68  1  0.88060000  0.27680000  0.73550000  1
  C  C69  1  0.61940000  0.27680000  0.23550000  1
  C  C70  1  0.82790000  0.24280000  0.46440000  1
  C  C71  1  0.67210000  0.24280000  0.96440000  1
  C  C72  1  0.81420000  0.16900000  0.66400000  1
  C  C73  1  0.68580000  0.16900000  0.16400000  1
  O  O74  1  0.81030000  0.94460000  0.98330000  1
  O  O75  1  0.68970000  0.94460000  0.48330000  1
  O  O76  1  0.46280000  0.88490000  0.88190000  1
  O  O77  1  0.03720000  0.88490000  0.38190000  1
  O  O78  1  0.37400000  0.85990000  0.34520000  1
  O  O79  1  0.12600000  0.85990000  0.84520000  1
  O  O80  1  0.46660000  0.84370000  0.04770000  1
  O  O81  1  0.03340000  0.84370000  0.54770000  1
  O  O82  1  0.36180000  0.77550000  0.53420000  1
  O  O83  1  0.13820000  0.77550000  0.03420000  1
  O  O84  1  0.86180000  0.22450000  0.96580000  1
  O  O85  1  0.63820000  0.22450000  0.46580000  1
  O  O86  1  0.96660000  0.15630000  0.45230000  1
  O  O87  1  0.53340000  0.15630000  0.95230000  1
  O  O88  1  0.87400000  0.14010000  0.15480000  1
  O  O89  1  0.62600000  0.14010000  0.65480000  1
  O  O90  1  0.96280000  0.11510000  0.61810000  1
  O  O91  1  0.53720000  0.11510000  0.11810000  1
  O  O92  1  0.31030000  0.05540000  0.51670000  1
  O  O93  1  0.18970000  0.05540000  0.01670000  1
