# generated using pymatgen
data_Cd3Si2H32(C7O2)8
_symmetry_space_group_name_H-M   'P 1'
_cell_length_a   13.87500000
_cell_length_b   14.07200000
_cell_length_c   14.20800000
_cell_angle_alpha   116.30000000
_cell_angle_beta   109.72400000
_cell_angle_gamma   101.42800000
_symmetry_Int_Tables_number   1
_chemical_formula_structural   Cd3Si2H32(C7O2)8
_chemical_formula_sum   'Cd3 Si2 H32 C56 O16'
_cell_volume   2133.12653709
_cell_formula_units_Z   1
loop_
 _symmetry_equiv_pos_site_id
 _symmetry_equiv_pos_as_xyz
  1  'x, y, z'
loop_
 _atom_site_type_symbol
 _atom_site_label
 _atom_site_symmetry_multiplicity
 _atom_site_fract_x
 _atom_site_fract_y
 _atom_site_fract_z
 _atom_site_occupancy
  Cd  Cd0  1  0.00000000  0.00000000  0.00000000  1
  Cd  Cd1  1  0.29469000  0.12624000  0.11388000  1
  Cd  Cd2  1  0.70531000  0.87376000  0.88612000  1
  Si  Si3  1  0.01012000  0.34604000  0.61091000  1
  Si  Si4  1  0.98988000  0.65396000  0.38909000  1
  H  H5  1  0.00590000  0.86670000  0.57630000  1
  H  H6  1  0.02270000  0.28370000  0.21200000  1
  H  H7  1  0.03450000  0.77920000  0.12840000  1
  H  H8  1  0.06420000  0.08080000  0.28990000  1
  H  H9  1  0.07840000  0.70450000  0.24610000  1
  H  H10  1  0.08630000  0.48400000  0.34080000  1
  H  H11  1  0.12080000  0.69810000  0.62380000  1
  H  H12  1  0.17310000  0.25790000  0.68480000  1
  H  H13  1  0.18410000  0.47370000  0.57980000  1
  H  H14  1  0.20750000  0.72110000  0.38910000  1
  H  H15  1  0.22450000  0.19570000  0.81280000  1
  H  H16  1  0.23100000  0.54310000  0.81030000  1
  H  H17  1  0.25660000  0.42040000  0.44740000  1
  H  H18  1  0.29490000  0.74410000  0.93470000  1
  H  H19  1  0.30570000  0.73990000  0.74540000  1
  H  H20  1  0.39420000  0.76960000  0.51430000  1
  H  H21  1  0.60580000  0.23040000  0.48570000  1
  H  H22  1  0.69430000  0.26010000  0.25460000  1
  H  H23  1  0.70510000  0.25590000  0.06530000  1
  H  H24  1  0.74340000  0.57960000  0.55260000  1
  H  H25  1  0.76900000  0.45690000  0.18970000  1
  H  H26  1  0.77550000  0.80430000  0.18720000  1
  H  H27  1  0.79250000  0.27890000  0.61090000  1
  H  H28  1  0.81590000  0.52630000  0.42020000  1
  H  H29  1  0.82690000  0.74210000  0.31520000  1
  H  H30  1  0.87920000  0.30190000  0.37620000  1
  H  H31  1  0.91370000  0.51600000  0.65920000  1
  H  H32  1  0.92160000  0.29550000  0.75390000  1
  H  H33  1  0.93580000  0.91920000  0.71010000  1
  H  H34  1  0.96550000  0.22080000  0.87160000  1
  H  H35  1  0.97730000  0.71630000  0.78800000  1
  H  H36  1  0.99410000  0.13330000  0.42370000  1
  C  C37  1  0.00850000  0.43830000  0.28500000  1
  C  C38  1  0.00910000  0.22910000  0.83450000  1
  C  C39  1  0.01860000  0.72890000  0.23840000  1
  C  C40  1  0.02950000  0.68160000  0.79130000  1
  C  C41  1  0.03860000  0.27850000  0.69940000  1
  C  C42  1  0.04650000  0.19210000  0.42810000  1
  C  C43  1  0.06520000  0.50740000  0.71880000  1
  C  C44  1  0.08020000  0.31010000  0.51550000  1
  C  C45  1  0.08870000  0.16070000  0.34880000  1
  C  C46  1  0.09870000  0.19960000  0.85300000  1
  C  C47  1  0.12940000  0.25080000  0.72240000  1
  C  C48  1  0.13390000  0.16530000  0.94130000  1
  C  C49  1  0.14240000  0.75040000  0.87160000  1
  C  C50  1  0.14310000  0.70550000  0.49270000  1
  C  C51  1  0.15920000  0.39370000  0.52100000  1
  C  C52  1  0.16010000  0.21280000  0.79850000  1
  C  C53  1  0.16610000  0.24470000  0.35450000  1
  C  C54  1  0.17560000  0.71190000  0.60000000  1
  C  C55  1  0.17910000  0.57790000  0.80370000  1
  C  C56  1  0.18050000  0.88060000  0.94460000  1
  C  C57  1  0.20240000  0.36210000  0.44200000  1
  C  C58  1  0.20900000  0.21150000  0.26570000  1
  C  C59  1  0.21730000  0.69780000  0.87860000  1
  C  C60  1  0.22690000  0.72640000  0.46260000  1
  C  C61  1  0.28650000  0.73800000  0.67360000  1
  C  C62  1  0.33880000  0.75480000  0.53690000  1
  C  C63  1  0.36830000  0.76110000  0.64310000  1
  C  C64  1  0.48960000  0.79720000  0.72650000  1
  C  C65  1  0.51040000  0.20280000  0.27350000  1
  C  C66  1  0.63170000  0.23890000  0.35690000  1
  C  C67  1  0.66120000  0.24520000  0.46310000  1
  C  C68  1  0.71350000  0.26200000  0.32640000  1
  C  C69  1  0.77310000  0.27360000  0.53740000  1
  C  C70  1  0.78270000  0.30220000  0.12140000  1
  C  C71  1  0.79100000  0.78850000  0.73430000  1
  C  C72  1  0.79760000  0.63790000  0.55800000  1
  C  C73  1  0.81950000  0.11940000  0.05540000  1
  C  C74  1  0.82090000  0.42210000  0.19630000  1
  C  C75  1  0.82440000  0.28810000  0.40000000  1
  C  C76  1  0.83390000  0.75530000  0.64550000  1
  C  C77  1  0.83990000  0.78720000  0.20150000  1
  C  C78  1  0.84080000  0.60630000  0.47900000  1
  C  C79  1  0.85690000  0.29450000  0.50730000  1
  C  C80  1  0.85760000  0.24960000  0.12840000  1
  C  C81  1  0.86610000  0.83470000  0.05870000  1
  C  C82  1  0.87060000  0.74920000  0.27760000  1
  C  C83  1  0.90130000  0.80040000  0.14700000  1
  C  C84  1  0.91130000  0.83930000  0.65120000  1
  C  C85  1  0.91980000  0.68990000  0.48450000  1
  C  C86  1  0.93480000  0.49260000  0.28120000  1
  C  C87  1  0.95350000  0.80790000  0.57190000  1
  C  C88  1  0.96140000  0.72150000  0.30060000  1
  C  C89  1  0.97050000  0.31840000  0.20870000  1
  C  C90  1  0.98140000  0.27110000  0.76160000  1
  C  C91  1  0.99090000  0.77090000  0.16550000  1
  C  C92  1  0.99150000  0.56170000  0.71500000  1
  O  O93  1  0.06250000  0.13690000  0.97060000  1
  O  O94  1  0.10700000  0.91990000  0.93260000  1
  O  O95  1  0.16650000  0.10310000  0.18200000  1
  O  O96  1  0.23230000  0.17060000  0.98080000  1
  O  O97  1  0.28320000  0.28710000  0.27510000  1
  O  O98  1  0.28370000  0.94350000  0.01180000  1
  O  O99  1  0.43690000  0.15470000  0.28900000  1
  O  O100  1  0.48750000  0.22040000  0.19030000  1
  O  O101  1  0.51250000  0.77960000  0.80970000  1
  O  O102  1  0.56310000  0.84530000  0.71100000  1
  O  O103  1  0.71630000  0.05650000  0.98820000  1
  O  O104  1  0.71680000  0.71290000  0.72490000  1
  O  O105  1  0.76770000  0.82940000  0.01920000  1
  O  O106  1  0.83350000  0.89690000  0.81800000  1
  O  O107  1  0.89300000  0.08010000  0.06740000  1
  O  O108  1  0.93750000  0.86310000  0.02940000  1
