# generated using pymatgen
data_UCuH2(C5O4)2
_symmetry_space_group_name_H-M   'P 1'
_cell_length_a   7.10700000
_cell_length_b   7.22340000
_cell_length_c   9.20500000
_cell_angle_alpha   95.37700000
_cell_angle_beta   91.25600000
_cell_angle_gamma   114.89300000
_symmetry_Int_Tables_number   1
_chemical_formula_structural   UCuH2(C5O4)2
_chemical_formula_sum   'U1 Cu1 H2 C10 O8'
_cell_volume   425.77938671
_cell_formula_units_Z   1
loop_
 _symmetry_equiv_pos_site_id
 _symmetry_equiv_pos_as_xyz
  1  'x, y, z'
loop_
 _atom_site_type_symbol
 _atom_site_label
 _atom_site_symmetry_multiplicity
 _atom_site_fract_x
 _atom_site_fract_y
 _atom_site_fract_z
 _atom_site_occupancy
  U  U0  1  0.50000000  0.50000000  0.50000000  1
  Cu  Cu1  1  0.00000000  0.00000000  0.50000000  1
  H  H2  1  0.28860000  0.43140000  0.97320000  1
  H  H3  1  0.71140000  0.56860000  0.02680000  1
  C  C4  1  0.04140000  0.43280000  0.86239000  1
  C  C5  1  0.09380000  0.35510000  0.71816000  1
  C  C6  1  0.13220000  0.52470000  0.12236000  1
  C  C7  1  0.17250000  0.45850000  0.98397000  1
  C  C8  1  0.27010000  0.53910000  0.25138000  1
  C  C9  1  0.72990000  0.46090000  0.74862000  1
  C  C10  1  0.82750000  0.54150000  0.01603000  1
  C  C11  1  0.86780000  0.47530000  0.87764000  1
  C  C12  1  0.90620000  0.64490000  0.28184000  1
  C  C13  1  0.95860000  0.56720000  0.13761000  1
  O  O14  1  0.01020000  0.16313000  0.68625000  1
  O  O15  1  0.22210000  0.48518000  0.64632000  1
  O  O16  1  0.23970000  0.59930000  0.37788000  1
  O  O17  1  0.41570000  0.48270000  0.23425000  1
  O  O18  1  0.58430000  0.51730000  0.76575000  1
  O  O19  1  0.76030000  0.40070000  0.62212000  1
  O  O20  1  0.77790000  0.51482000  0.35368000  1
  O  O21  1  0.98980000  0.83687000  0.31375000  1
