# generated using pymatgen
data_AgH4C6NO2
_symmetry_space_group_name_H-M   'P 1'
_cell_length_a   7.24990000
_cell_length_b   19.76017258
_cell_length_c   19.76017258
_cell_angle_alpha   73.92218828
_cell_angle_beta   79.42938085
_cell_angle_gamma   79.42938085
_symmetry_Int_Tables_number   1
_chemical_formula_structural   AgH4C6NO2
_chemical_formula_sum   'Ag16 H64 C96 N16 O32'
_cell_volume   2647.44756892
_cell_formula_units_Z   16
loop_
 _symmetry_equiv_pos_site_id
 _symmetry_equiv_pos_as_xyz
  1  'x, y, z'
loop_
 _atom_site_type_symbol
 _atom_site_label
 _atom_site_symmetry_multiplicity
 _atom_site_fract_x
 _atom_site_fract_y
 _atom_site_fract_z
 _atom_site_occupancy
  Ag  Ag0  1  0.50928000  0.57366500  0.45829500  1
  Ag  Ag1  1  0.00928000  0.45829500  0.57366500  1
  Ag  Ag2  1  0.54124000  0.04170500  0.92633500  1
  Ag  Ag3  1  0.04124000  0.92633500  0.04170500  1
  Ag  Ag4  1  0.98576000  0.43932000  0.97942000  1
  Ag  Ag5  1  0.48576000  0.97942000  0.43932000  1
  Ag  Ag6  1  0.40450000  0.52058000  0.06068000  1
  Ag  Ag7  1  0.90450000  0.06068000  0.52058000  1
  Ag  Ag8  1  0.51424000  0.02058000  0.56068000  1
  Ag  Ag9  1  0.01424000  0.56068000  0.02058000  1
  Ag  Ag10  1  0.09550000  0.93932000  0.47942000  1
  Ag  Ag11  1  0.59550000  0.47942000  0.93932000  1
  Ag  Ag12  1  0.99072000  0.54170500  0.42633500  1
  Ag  Ag13  1  0.49072000  0.42633500  0.54170500  1
  Ag  Ag14  1  0.95876000  0.07366500  0.95829500  1
  Ag  Ag15  1  0.45876000  0.95829500  0.07366500  1
  C  C16  1  0.85783000  0.28602000  0.00232000  1
  C  C17  1  0.35783000  0.00232000  0.28602000  1
  C  C18  1  0.14617000  0.49768000  0.21398000  1
  C  C19  1  0.64617000  0.21398000  0.49768000  1
  C  C20  1  0.15237000  0.96400000  0.74946000  1
  C  C21  1  0.65237000  0.74946000  0.96400000  1
  C  C22  1  0.86583000  0.75054000  0.53600000  1
  C  C23  1  0.36583000  0.53600000  0.75054000  1
  C  C24  1  0.21458000  0.92648000  0.69736000  1
  C  C25  1  0.71458000  0.69736000  0.92648000  1
  C  C26  1  0.83842000  0.80264000  0.57352000  1
  C  C27  1  0.33842000  0.57352000  0.80264000  1
  C  C28  1  0.43320000  0.71906000  0.49574000  1
  C  C29  1  0.93320000  0.49574000  0.71906000  1
  C  C30  1  0.64800000  0.00426000  0.78094000  1
  C  C31  1  0.14800000  0.78094000  0.00426000  1
  C  C32  1  0.77749000  0.45352000  0.12670000  1
  C  C33  1  0.27749000  0.12670000  0.45352000  1
  C  C34  1  0.35771000  0.37330000  0.04648000  1
  C  C35  1  0.85771000  0.04648000  0.37330000  1
  C  C36  1  0.14955000  0.97926000  0.87164000  1
  C  C37  1  0.64955000  0.87164000  0.97926000  1
  C  C38  1  0.00045000  0.62836000  0.52074000  1
  C  C39  1  0.50045000  0.52074000  0.62836000  1
  C  C40  1  0.22114000  0.94076000  0.81436000  1
  C  C41  1  0.72114000  0.81436000  0.94076000  1
  C  C42  1  0.97626000  0.68564000  0.55924000  1
  C  C43  1  0.47626000  0.55924000  0.68564000  1
  C  C44  1  0.05953000  0.23856000  0.89518000  1
  C  C45  1  0.55953000  0.89518000  0.23856000  1
  C  C46  1  0.19327000  0.60482000  0.26144000  1
  C  C47  1  0.69327000  0.26144000  0.60482000  1
  C  C48  1  0.34580000  0.86571000  0.71089000  1
  C  C49  1  0.84580000  0.71089000  0.86571000  1
  C  C50  1  0.92240000  0.78911000  0.63429000  1
  C  C51  1  0.42240000  0.63429000  0.78911000  1
  C  C52  1  0.06760000  0.30535000  0.90125000  1
  C  C53  1  0.56760000  0.90125000  0.30535000  1
  C  C54  1  0.27420000  0.59875000  0.19465000  1
  C  C55  1  0.77420000  0.19465000  0.59875000  1
  C  C56  1  0.35536000  0.88060000  0.82588000  1
  C  C57  1  0.85536000  0.82588000  0.88060000  1
  C  C58  1  0.06184000  0.67412000  0.61940000  1
  C  C59  1  0.56184000  0.61940000  0.67412000  1
  C  C60  1  0.41566000  0.84297000  0.77511000  1
  C  C61  1  0.91566000  0.77511000  0.84297000  1
  C  C62  1  0.03374000  0.72489000  0.65703000  1
  C  C63  1  0.53374000  0.65703000  0.72489000  1
  C  C64  1  0.08434000  0.22489000  0.15703000  1
  C  C65  1  0.58434000  0.15703000  0.22489000  1
  C  C66  1  0.46626000  0.34297000  0.27511000  1
  C  C67  1  0.96626000  0.27511000  0.34297000  1
  C  C68  1  0.14464000  0.17412000  0.11940000  1
  C  C69  1  0.64464000  0.11940000  0.17412000  1
  C  C70  1  0.43816000  0.38060000  0.32588000  1
  C  C71  1  0.93816000  0.32588000  0.38060000  1
  C  C72  1  0.43240000  0.09875000  0.69465000  1
  C  C73  1  0.93240000  0.69465000  0.09875000  1
  C  C74  1  0.22580000  0.80535000  0.40125000  1
  C  C75  1  0.72580000  0.40125000  0.80535000  1
  C  C76  1  0.15420000  0.28911000  0.13429000  1
  C  C77  1  0.65420000  0.13429000  0.28911000  1
  C  C78  1  0.57760000  0.36571000  0.21089000  1
  C  C79  1  0.07760000  0.21089000  0.36571000  1
  C  C80  1  0.44047000  0.10482000  0.76144000  1
  C  C81  1  0.94047000  0.76144000  0.10482000  1
  C  C82  1  0.30673000  0.73856000  0.39518000  1
  C  C83  1  0.80673000  0.39518000  0.73856000  1
  C  C84  1  0.27886000  0.18564000  0.05924000  1
  C  C85  1  0.77886000  0.05924000  0.18564000  1
  C  C86  1  0.52374000  0.44076000  0.31436000  1
  C  C87  1  0.02374000  0.31436000  0.44076000  1
  C  C88  1  0.35045000  0.12836000  0.02074000  1
  C  C89  1  0.85045000  0.02074000  0.12836000  1
  C  C90  1  0.49955000  0.47926000  0.37164000  1
  C  C91  1  0.99955000  0.37164000  0.47926000  1
  C  C92  1  0.72251000  0.87330000  0.54648000  1
  C  C93  1  0.22251000  0.54648000  0.87330000  1
  C  C94  1  0.14229000  0.95352000  0.62670000  1
  C  C95  1  0.64229000  0.62670000  0.95352000  1
  C  C96  1  0.06680000  0.50426000  0.28094000  1
  C  C97  1  0.56680000  0.28094000  0.50426000  1
  C  C98  1  0.85200000  0.21906000  0.99574000  1
  C  C99  1  0.35200000  0.99574000  0.21906000  1
  C  C100  1  0.28542000  0.30264000  0.07352000  1
  C  C101  1  0.78542000  0.07352000  0.30264000  1
  C  C102  1  0.66158000  0.42648000  0.19736000  1
  C  C103  1  0.16158000  0.19736000  0.42648000  1
  C  C104  1  0.34763000  0.25054000  0.03600000  1
  C  C105  1  0.84763000  0.03600000  0.25054000  1
  C  C106  1  0.63417000  0.46400000  0.24946000  1
  C  C107  1  0.13417000  0.24946000  0.46400000  1
  C  C108  1  0.64217000  0.99768000  0.71398000  1
  C  C109  1  0.14217000  0.71398000  0.99768000  1
  C  C110  1  0.35383000  0.78602000  0.50232000  1
  C  C111  1  0.85383000  0.50232000  0.78602000  1
  H  H112  1  0.37440000  0.80110000  0.54050000  1
  H  H113  1  0.87440000  0.54050000  0.80110000  1
  H  H114  1  0.71600000  0.95950000  0.69890000  1
  H  H115  1  0.21600000  0.69890000  0.95950000  1
  H  H116  1  0.69020000  0.50490000  0.24070000  1
  H  H117  1  0.19020000  0.24070000  0.50490000  1
  H  H118  1  0.43580000  0.25930000  0.99510000  1
  H  H119  1  0.93580000  0.99510000  0.25930000  1
  H  H120  1  0.50570000  0.69010000  0.52990000  1
  H  H121  1  0.00570000  0.52990000  0.69010000  1
  H  H122  1  0.72570000  0.97010000  0.80990000  1
  H  H123  1  0.22570000  0.80990000  0.97010000  1
  H  H124  1  0.38700000  0.84000000  0.67660000  1
  H  H125  1  0.88700000  0.67660000  0.84000000  1
  H  H126  1  0.90360000  0.82340000  0.66000000  1
  H  H127  1  0.40360000  0.66000000  0.82340000  1
  H  H128  1  0.13120000  0.22360000  0.85640000  1
  H  H129  1  0.63120000  0.85640000  0.22360000  1
  H  H130  1  0.21120000  0.64360000  0.27640000  1
  H  H131  1  0.71120000  0.27640000  0.64360000  1
  H  H132  1  0.99620000  0.21600000  0.19800000  1
  H  H133  1  0.49620000  0.19800000  0.21600000  1
  H  H134  1  0.41020000  0.30200000  0.28400000  1
  H  H135  1  0.91020000  0.28400000  0.30200000  1
  H  H136  1  0.86060000  0.36860000  0.36560000  1
  H  H137  1  0.36060000  0.36560000  0.36860000  1
  H  H138  1  0.59480000  0.13440000  0.13140000  1
  H  H139  1  0.09480000  0.13140000  0.13440000  1
  H  H140  1  0.14500000  0.33430000  0.86690000  1
  H  H141  1  0.64500000  0.86690000  0.33430000  1
  H  H142  1  0.34620000  0.63310000  0.16570000  1
  H  H143  1  0.84620000  0.16570000  0.63310000  1
  H  H144  1  0.35500000  0.13310000  0.66570000  1
  H  H145  1  0.85500000  0.66570000  0.13310000  1
  H  H146  1  0.15380000  0.83430000  0.36690000  1
  H  H147  1  0.65380000  0.36690000  0.83430000  1
  H  H148  1  0.63940000  0.63440000  0.63140000  1
  H  H149  1  0.13940000  0.63140000  0.63440000  1
  H  H150  1  0.90520000  0.86860000  0.86560000  1
  H  H151  1  0.40520000  0.86560000  0.86860000  1
  H  H152  1  0.50380000  0.80200000  0.78400000  1
  H  H153  1  0.00380000  0.78400000  0.80200000  1
  H  H154  1  0.08980000  0.71600000  0.69800000  1
  H  H155  1  0.58980000  0.69800000  0.71600000  1
  H  H156  1  0.36880000  0.14360000  0.77640000  1
  H  H157  1  0.86880000  0.77640000  0.14360000  1
  H  H158  1  0.28880000  0.72360000  0.35640000  1
  H  H159  1  0.78880000  0.35640000  0.72360000  1
  H  H160  1  0.11300000  0.32340000  0.16000000  1
  H  H161  1  0.61300000  0.16000000  0.32340000  1
  H  H162  1  0.59640000  0.34000000  0.17660000  1
  H  H163  1  0.09640000  0.17660000  0.34000000  1
  H  H164  1  0.99430000  0.47010000  0.30990000  1
  H  H165  1  0.49430000  0.30990000  0.47010000  1
  H  H166  1  0.77430000  0.19010000  0.02990000  1
  H  H167  1  0.27430000  0.02990000  0.19010000  1
  H  H168  1  0.80980000  0.75930000  0.49510000  1
  H  H169  1  0.30980000  0.49510000  0.75930000  1
  H  H170  1  0.06420000  0.00490000  0.74070000  1
  H  H171  1  0.56420000  0.74070000  0.00490000  1
  H  H172  1  0.12560000  0.45950000  0.19890000  1
  H  H173  1  0.62560000  0.19890000  0.45950000  1
  H  H174  1  0.78400000  0.30110000  0.04050000  1
  H  H175  1  0.28400000  0.04050000  0.30110000  1
  N  N176  1  0.95310000  0.19439000  0.94261000  1
  N  N177  1  0.45310000  0.94261000  0.19439000  1
  N  N178  1  0.09010000  0.55739000  0.30561000  1
  N  N179  1  0.59010000  0.30561000  0.55739000  1
  N  N180  1  0.96701000  0.32975000  0.95523000  1
  N  N181  1  0.46701000  0.95523000  0.32975000  1
  N  N182  1  0.25199000  0.54477000  0.17025000  1
  N  N183  1  0.75199000  0.17025000  0.54477000  1
  N  N184  1  0.53299000  0.04477000  0.67025000  1
  N  N185  1  0.03299000  0.67025000  0.04477000  1
  N  N186  1  0.24801000  0.82975000  0.45523000  1
  N  N187  1  0.74801000  0.45523000  0.82975000  1
  N  N188  1  0.54690000  0.05739000  0.80561000  1
  N  N189  1  0.04690000  0.80561000  0.05739000  1
  N  N190  1  0.40990000  0.69439000  0.44261000  1
  N  N191  1  0.90990000  0.44261000  0.69439000  1
  O  O192  1  0.57743000  0.53447000  0.35847000  1
  O  O193  1  0.07743000  0.35847000  0.53447000  1
  O  O194  1  0.47037000  0.14153000  0.96553000  1
  O  O195  1  0.97037000  0.96553000  0.14153000  1
  O  O196  1  0.79856000  0.41744000  0.08204000  1
  O  O197  1  0.29856000  0.08204000  0.41744000  1
  O  O198  1  0.29804000  0.41796000  0.08256000  1
  O  O199  1  0.79804000  0.08256000  0.41796000  1
  O  O200  1  0.21285000  0.95389000  0.92981000  1
  O  O201  1  0.71285000  0.92981000  0.95389000  1
  O  O202  1  0.09655000  0.57019000  0.54611000  1
  O  O203  1  0.59655000  0.54611000  0.57019000  1
  O  O204  1  0.84371000  0.50970000  0.11808000  1
  O  O205  1  0.34371000  0.11808000  0.50970000  1
  O  O206  1  0.47149000  0.38192000  0.99030000  1
  O  O207  1  0.97149000  0.99030000  0.38192000  1
  O  O208  1  0.65629000  0.88192000  0.49030000  1
  O  O209  1  0.15629000  0.49030000  0.88192000  1
  O  O210  1  0.02851000  0.00970000  0.61808000  1
  O  O211  1  0.52851000  0.61808000  0.00970000  1
  O  O212  1  0.28715000  0.07019000  0.04611000  1
  O  O213  1  0.78715000  0.04611000  0.07019000  1
  O  O214  1  0.40345000  0.45389000  0.42981000  1
  O  O215  1  0.90345000  0.42981000  0.45389000  1
  O  O216  1  0.70144000  0.91796000  0.58256000  1
  O  O217  1  0.20144000  0.58256000  0.91796000  1
  O  O218  1  0.20196000  0.91744000  0.58204000  1
  O  O219  1  0.70196000  0.58204000  0.91744000  1
  O  O220  1  0.92257000  0.64153000  0.46553000  1
  O  O221  1  0.42257000  0.46553000  0.64153000  1
  O  O222  1  0.02963000  0.03447000  0.85847000  1
  O  O223  1  0.52963000  0.85847000  0.03447000  1
