# generated using pymatgen
data_Zn2H14(C3O)9
_symmetry_space_group_name_H-M   'P 1'
_cell_length_a   7.38000000
_cell_length_b   22.47000000
_cell_length_c   28.29000000
_cell_angle_alpha   90.00000000
_cell_angle_beta   90.00000000
_cell_angle_gamma   99.13000000
_symmetry_Int_Tables_number   1
_chemical_formula_structural   Zn2H14(C3O)9
_chemical_formula_sum   'Zn8 H56 C108 O36'
_cell_volume   4631.85647050
_cell_formula_units_Z   4
loop_
 _symmetry_equiv_pos_site_id
 _symmetry_equiv_pos_as_xyz
  1  'x, y, z'
loop_
 _atom_site_type_symbol
 _atom_site_label
 _atom_site_symmetry_multiplicity
 _atom_site_fract_x
 _atom_site_fract_y
 _atom_site_fract_z
 _atom_site_occupancy
  Zn  Zn0  1  0.86270000  0.82581000  0.95283000  1
  Zn  Zn1  1  0.86270000  0.32581000  0.54717000  1
  Zn  Zn2  1  0.55402000  0.74499000  0.44913000  1
  Zn  Zn3  1  0.55402000  0.24499000  0.05087000  1
  Zn  Zn4  1  0.44598000  0.75501000  0.94913000  1
  Zn  Zn5  1  0.44598000  0.25501000  0.55087000  1
  Zn  Zn6  1  0.13730000  0.67419000  0.45283000  1
  Zn  Zn7  1  0.13730000  0.17419000  0.04717000  1
  H  H8  1  0.96580000  0.06820000  0.85560000  1
  H  H9  1  0.96580000  0.56820000  0.64440000  1
  H  H10  1  0.89860000  0.80850000  0.33080000  1
  H  H11  1  0.89860000  0.30850000  0.16920000  1
  H  H12  1  0.86790000  0.31040000  0.25390000  1
  H  H13  1  0.86790000  0.81040000  0.24610000  1
  H  H14  1  0.86440000  0.34660000  0.40100000  1
  H  H15  1  0.86440000  0.84660000  0.09900000  1
  H  H16  1  0.80490000  0.52310000  0.31940000  1
  H  H17  1  0.80490000  0.02310000  0.18060000  1
  H  H18  1  0.79900000  0.96770000  0.85680000  1
  H  H19  1  0.79900000  0.46770000  0.64320000  1
  H  H20  1  0.74570000  0.63490000  0.39210000  1
  H  H21  1  0.74570000  0.13490000  0.10790000  1
  H  H22  1  0.71620000  0.22120000  0.93760000  1
  H  H23  1  0.71620000  0.72120000  0.56240000  1
  H  H24  1  0.69300000  0.19370000  0.82250000  1
  H  H25  1  0.69300000  0.69370000  0.67750000  1
  H  H26  1  0.65670000  0.57910000  0.75960000  1
  H  H27  1  0.65670000  0.07910000  0.74040000  1
  H  H28  1  0.58030000  0.33400000  0.28120000  1
  H  H29  1  0.58030000  0.83400000  0.21880000  1
  H  H30  1  0.57530000  0.45470000  0.28920000  1
  H  H31  1  0.57530000  0.95470000  0.21080000  1
  H  H32  1  0.56940000  0.65650000  0.79610000  1
  H  H33  1  0.56940000  0.15650000  0.70390000  1
  H  H34  1  0.50560000  0.79920000  0.36480000  1
  H  H35  1  0.50560000  0.29920000  0.13520000  1
  H  H36  1  0.49440000  0.70080000  0.86480000  1
  H  H37  1  0.49440000  0.20080000  0.63520000  1
  H  H38  1  0.43060000  0.84350000  0.29610000  1
  H  H39  1  0.43060000  0.34350000  0.20390000  1
  H  H40  1  0.42470000  0.04530000  0.78920000  1
  H  H41  1  0.42470000  0.54530000  0.71080000  1
  H  H42  1  0.41970000  0.16600000  0.78120000  1
  H  H43  1  0.41970000  0.66600000  0.71880000  1
  H  H44  1  0.34330000  0.92090000  0.25960000  1
  H  H45  1  0.34330000  0.42090000  0.24040000  1
  H  H46  1  0.30700000  0.30630000  0.32250000  1
  H  H47  1  0.30700000  0.80630000  0.17750000  1
  H  H48  1  0.28380000  0.27880000  0.43760000  1
  H  H49  1  0.28380000  0.77880000  0.06240000  1
  H  H50  1  0.25430000  0.86510000  0.89210000  1
  H  H51  1  0.25430000  0.36510000  0.60790000  1
  H  H52  1  0.20100000  0.53230000  0.35680000  1
  H  H53  1  0.20100000  0.03230000  0.14320000  1
  H  H54  1  0.19510000  0.97690000  0.81940000  1
  H  H55  1  0.19510000  0.47690000  0.68060000  1
  H  H56  1  0.13560000  0.15340000  0.90100000  1
  H  H57  1  0.13560000  0.65340000  0.59900000  1
  H  H58  1  0.13210000  0.18960000  0.75390000  1
  H  H59  1  0.13210000  0.68960000  0.74610000  1
  H  H60  1  0.10140000  0.69150000  0.83080000  1
  H  H61  1  0.10140000  0.19150000  0.66920000  1
  H  H62  1  0.03420000  0.43180000  0.35560000  1
  H  H63  1  0.03420000  0.93180000  0.14440000  1
  C  C64  1  0.97900000  0.69300000  0.83758000  1
  C  C65  1  0.97900000  0.19300000  0.66242000  1
  C  C66  1  0.95350000  0.34180000  0.26561000  1
  C  C67  1  0.95350000  0.84180000  0.23439000  1
  C  C68  1  0.94690000  0.08540000  0.82650000  1
  C  C69  1  0.94690000  0.58540000  0.67350000  1
  C  C70  1  0.93660000  0.72020000  0.87941000  1
  C  C71  1  0.93660000  0.22020000  0.62059000  1
  C  C72  1  0.91990000  0.36810000  0.30849000  1
  C  C73  1  0.91990000  0.86810000  0.19151000  1
  C  C74  1  0.91040000  0.75540000  0.41269000  1
  C  C75  1  0.91040000  0.25540000  0.08731000  1
  C  C76  1  0.88800000  0.63880000  0.76018000  1
  C  C77  1  0.88800000  0.13880000  0.73982000  1
  C  C78  1  0.84580000  0.66810000  0.80554000  1
  C  C79  1  0.84580000  0.16810000  0.69446000  1
  C  C80  1  0.78550000  0.06460000  0.80086000  1
  C  C81  1  0.78550000  0.56460000  0.69914000  1
  C  C82  1  0.76220000  0.09240000  0.75780000  1
  C  C83  1  0.76220000  0.59240000  0.74220000  1
  C  C84  1  0.75300000  0.33810000  0.38505000  1
  C  C85  1  0.75300000  0.83810000  0.11495000  1
  C  C86  1  0.75220000  0.34640000  0.33654000  1
  C  C87  1  0.75220000  0.84640000  0.16346000  1
  C  C88  1  0.74910000  0.72310000  0.89068000  1
  C  C89  1  0.74910000  0.22310000  0.60932000  1
  C  C90  1  0.68340000  0.52510000  0.32690000  1
  C  C91  1  0.68340000  0.02510000  0.17310000  1
  C  C92  1  0.67730000  0.96980000  0.84952000  1
  C  C93  1  0.67730000  0.46980000  0.65048000  1
  C  C94  1  0.66220000  0.67220000  0.81697000  1
  C  C95  1  0.66220000  0.17220000  0.68303000  1
  C  C96  1  0.64000000  0.01700000  0.82040000  1
  C  C97  1  0.64000000  0.51700000  0.67960000  1
  C  C98  1  0.63880000  0.57090000  0.35640000  1
  C  C99  1  0.63880000  0.07090000  0.14360000  1
  C  C100  1  0.61700000  0.69900000  0.85840000  1
  C  C101  1  0.61700000  0.19900000  0.64160000  1
  C  C102  1  0.60840000  0.30870000  0.46233000  1
  C  C103  1  0.60840000  0.80870000  0.03767000  1
  C  C104  1  0.59350000  0.31750000  0.41142000  1
  C  C105  1  0.59350000  0.81750000  0.08858000  1
  C  C106  1  0.59150000  0.87820000  0.89921000  1
  C  C107  1  0.59150000  0.37820000  0.60079000  1
  C  C108  1  0.58380000  0.33170000  0.31398000  1
  C  C109  1  0.58380000  0.83170000  0.18602000  1
  C  C110  1  0.58150000  0.18660000  0.83850000  1
  C  C111  1  0.58150000  0.68660000  0.66150000  1
  C  C112  1  0.57370000  0.19380000  0.88740000  1
  C  C113  1  0.57370000  0.69380000  0.61260000  1
  C  C114  1  0.54510000  0.48410000  0.30960000  1
  C  C115  1  0.54510000  0.98410000  0.19040000  1
  C  C116  1  0.54280000  0.92660000  0.86790000  1
  C  C117  1  0.54280000  0.42660000  0.63210000  1
  C  C118  1  0.45720000  0.57340000  0.36790000  1
  C  C119  1  0.45720000  0.07340000  0.13210000  1
  C  C120  1  0.45490000  0.01590000  0.80960000  1
  C  C121  1  0.45490000  0.51590000  0.69040000  1
  C  C122  1  0.42630000  0.30620000  0.38740000  1
  C  C123  1  0.42630000  0.80620000  0.11260000  1
  C  C124  1  0.41850000  0.31340000  0.33850000  1
  C  C125  1  0.41850000  0.81340000  0.16150000  1
  C  C126  1  0.41620000  0.16830000  0.81398000  1
  C  C127  1  0.41620000  0.66830000  0.68602000  1
  C  C128  1  0.40850000  0.62180000  0.39921000  1
  C  C129  1  0.40850000  0.12180000  0.10079000  1
  C  C130  1  0.40650000  0.18250000  0.91142000  1
  C  C131  1  0.40650000  0.68250000  0.58858000  1
  C  C132  1  0.39160000  0.19130000  0.96233000  1
  C  C133  1  0.39160000  0.69130000  0.53767000  1
  C  C134  1  0.38300000  0.80100000  0.35840000  1
  C  C135  1  0.38300000  0.30100000  0.14160000  1
  C  C136  1  0.36120000  0.92910000  0.85640000  1
  C  C137  1  0.36120000  0.42910000  0.64360000  1
  C  C138  1  0.36000000  0.48300000  0.32040000  1
  C  C139  1  0.36000000  0.98300000  0.17960000  1
  C  C140  1  0.33780000  0.82780000  0.31697000  1
  C  C141  1  0.33780000  0.32780000  0.18303000  1
  C  C142  1  0.32270000  0.53020000  0.34952000  1
  C  C143  1  0.32270000  0.03020000  0.15048000  1
  C  C144  1  0.31660000  0.97490000  0.82690000  1
  C  C145  1  0.31660000  0.47490000  0.67310000  1
  C  C146  1  0.25090000  0.77690000  0.39068000  1
  C  C147  1  0.25090000  0.27690000  0.10932000  1
  C  C148  1  0.24780000  0.15360000  0.83654000  1
  C  C149  1  0.24780000  0.65360000  0.66346000  1
  C  C150  1  0.24700000  0.16190000  0.88505000  1
  C  C151  1  0.24700000  0.66190000  0.61495000  1
  C  C152  1  0.23780000  0.40760000  0.25780000  1
  C  C153  1  0.23780000  0.90760000  0.24220000  1
  C  C154  1  0.21450000  0.43540000  0.30086000  1
  C  C155  1  0.21450000  0.93540000  0.19914000  1
  C  C156  1  0.15420000  0.83190000  0.30554000  1
  C  C157  1  0.15420000  0.33190000  0.19446000  1
  C  C158  1  0.11200000  0.86120000  0.26018000  1
  C  C159  1  0.11200000  0.36120000  0.23982000  1
  C  C160  1  0.08960000  0.74460000  0.91269000  1
  C  C161  1  0.08960000  0.24460000  0.58731000  1
  C  C162  1  0.08010000  0.13190000  0.80849000  1
  C  C163  1  0.08010000  0.63190000  0.69151000  1
  C  C164  1  0.06340000  0.77980000  0.37941000  1
  C  C165  1  0.06340000  0.27980000  0.12059000  1
  C  C166  1  0.05310000  0.41460000  0.32650000  1
  C  C167  1  0.05310000  0.91460000  0.17350000  1
  C  C168  1  0.04650000  0.15820000  0.76561000  1
  C  C169  1  0.04650000  0.65820000  0.73439000  1
  C  C170  1  0.02100000  0.80700000  0.33758000  1
  C  C171  1  0.02100000  0.30700000  0.16242000  1
  O  O172  1  0.92460000  0.71536000  0.44265000  1
  O  O173  1  0.92460000  0.21536000  0.05735000  1
  O  O174  1  0.78440000  0.61150000  0.37390000  1
  O  O175  1  0.78440000  0.11150000  0.12610000  1
  O  O176  1  0.76370000  0.31958000  0.48133000  1
  O  O177  1  0.76370000  0.81958000  0.01867000  1
  O  O178  1  0.76180000  0.87870000  0.90869000  1
  O  O179  1  0.76180000  0.37870000  0.59131000  1
  O  O180  1  0.76180000  0.77741000  0.40879000  1
  O  O181  1  0.76180000  0.27741000  0.09121000  1
  O  O182  1  0.73660000  0.21230000  0.91018000  1
  O  O183  1  0.73660000  0.71230000  0.58982000  1
  O  O184  1  0.70340000  0.74728000  0.93128000  1
  O  O185  1  0.70340000  0.24728000  0.56872000  1
  O  O186  1  0.53890000  0.20930000  0.98561000  1
  O  O187  1  0.53890000  0.70930000  0.51439000  1
  O  O188  1  0.53490000  0.65990000  0.41591000  1
  O  O189  1  0.53490000  0.15990000  0.08409000  1
  O  O190  1  0.46510000  0.84010000  0.91591000  1
  O  O191  1  0.46510000  0.34010000  0.58409000  1
  O  O192  1  0.46110000  0.29070000  0.48561000  1
  O  O193  1  0.46110000  0.79070000  0.01439000  1
  O  O194  1  0.29660000  0.75272000  0.43128000  1
  O  O195  1  0.29660000  0.25272000  0.06872000  1
  O  O196  1  0.26340000  0.28770000  0.41018000  1
  O  O197  1  0.26340000  0.78770000  0.08982000  1
  O  O198  1  0.23820000  0.72259000  0.90879000  1
  O  O199  1  0.23820000  0.22259000  0.59121000  1
  O  O200  1  0.23820000  0.62130000  0.40869000  1
  O  O201  1  0.23820000  0.12130000  0.09131000  1
  O  O202  1  0.23630000  0.18042000  0.98133000  1
  O  O203  1  0.23630000  0.68042000  0.51867000  1
  O  O204  1  0.21560000  0.88850000  0.87390000  1
  O  O205  1  0.21560000  0.38850000  0.62610000  1
  O  O206  1  0.07540000  0.78464000  0.94265000  1
  O  O207  1  0.07540000  0.28464000  0.55735000  1
