# generated using pymatgen
data_CeSiH17(C7O2)4
_symmetry_space_group_name_H-M   'P 1'
_cell_length_a   14.53450000
_cell_length_b   14.53450000
_cell_length_c   21.93560000
_cell_angle_alpha   82.26360000
_cell_angle_beta   82.26360000
_cell_angle_gamma   66.64770000
_symmetry_Int_Tables_number   1
_chemical_formula_structural   CeSiH17(C7O2)4
_chemical_formula_sum   'Ce4 Si4 H68 C112 O32'
_cell_volume   4198.77053997
_cell_formula_units_Z   4
loop_
 _symmetry_equiv_pos_site_id
 _symmetry_equiv_pos_as_xyz
  1  'x, y, z'
loop_
 _atom_site_type_symbol
 _atom_site_label
 _atom_site_symmetry_multiplicity
 _atom_site_fract_x
 _atom_site_fract_y
 _atom_site_fract_z
 _atom_site_occupancy
  Ce  Ce0  1  0.53207000  0.95185000  0.09573000  1
  Ce  Ce1  1  0.95185000  0.53207000  0.59573000  1
  Ce  Ce2  1  0.04815000  0.46793000  0.40427000  1
  Ce  Ce3  1  0.46793000  0.04815000  0.90427000  1
  Si  Si4  1  0.34932000  0.88930000  0.50609000  1
  Si  Si5  1  0.11070000  0.65068000  0.99391000  1
  Si  Si6  1  0.88930000  0.34932000  0.00609000  1
  Si  Si7  1  0.65068000  0.11070000  0.49391000  1
  H  H8  1  0.55740000  0.99680000  0.57870000  1
  H  H9  1  0.50820000  0.98460000  0.68250000  1
  H  H10  1  0.66000000  0.97260000  0.40160000  1
  H  H11  1  0.17330000  0.95250000  0.91230000  1
  H  H12  1  0.81550000  0.94530000  0.54470000  1
  H  H13  1  0.14220000  0.92380000  0.55780000  1
  H  H14  1  0.78120000  0.91120000  0.02810000  1
  H  H15  1  0.07620000  0.85780000  0.94220000  1
  H  H16  1  0.04750000  0.82670000  0.58770000  1
  H  H17  1  0.38690000  0.82570000  0.63500000  1
  H  H18  1  0.56890000  0.81930000  0.48170000  1
  H  H19  1  0.94530000  0.81550000  0.04470000  1
  H  H20  1  0.76000000  0.80940000  0.38190000  1
  H  H21  1  0.38810000  0.80810000  0.29160000  1
  H  H22  1  0.34300000  0.79160000  0.39620000  1
  H  H23  1  0.91120000  0.78120000  0.52810000  1
  H  H24  1  0.80940000  0.76000000  0.88190000  1
  H  H25  1  0.52240000  0.75400000  0.69140000  1
  H  H26  1  0.70620000  0.74300000  0.53850000  1
  H  H27  1  0.41560000  0.71780000  0.96790000  1
  H  H28  1  0.74300000  0.70620000  0.03850000  1
  H  H29  1  0.64480000  0.70460000  0.72550000  1
  H  H30  1  0.37670000  0.68030000  0.50490000  1
  H  H31  1  0.97260000  0.66000000  0.90160000  1
  H  H32  1  0.20840000  0.65700000  0.10380000  1
  H  H33  1  0.70460000  0.64480000  0.22550000  1
  H  H34  1  0.31970000  0.62330000  0.99510000  1
  H  H35  1  0.17430000  0.61310000  0.86500000  1
  H  H36  1  0.19190000  0.61190000  0.20840000  1
  H  H37  1  0.28220000  0.58440000  0.53210000  1
  H  H38  1  0.81930000  0.56890000  0.98170000  1
  H  H39  1  0.99680000  0.55740000  0.07870000  1
  H  H40  1  0.75400000  0.52240000  0.19140000  1
  H  H41  1  0.98460000  0.50820000  0.18250000  1
  H  H42  1  0.01540000  0.49180000  0.81750000  1
  H  H43  1  0.24600000  0.47760000  0.80860000  1
  H  H44  1  0.00320000  0.44260000  0.92130000  1
  H  H45  1  0.18070000  0.43110000  0.01830000  1
  H  H46  1  0.71780000  0.41560000  0.46790000  1
  H  H47  1  0.80810000  0.38810000  0.79160000  1
  H  H48  1  0.82570000  0.38690000  0.13500000  1
  H  H49  1  0.68030000  0.37670000  0.00490000  1
  H  H50  1  0.29540000  0.35520000  0.77450000  1
  H  H51  1  0.79160000  0.34300000  0.89620000  1
  H  H52  1  0.02740000  0.34000000  0.09840000  1
  H  H53  1  0.62330000  0.31970000  0.49510000  1
  H  H54  1  0.35520000  0.29540000  0.27450000  1
  H  H55  1  0.25700000  0.29380000  0.96150000  1
  H  H56  1  0.58440000  0.28220000  0.03210000  1
  H  H57  1  0.29380000  0.25700000  0.46150000  1
  H  H58  1  0.47760000  0.24600000  0.30860000  1
  H  H59  1  0.19060000  0.24000000  0.11810000  1
  H  H60  1  0.08880000  0.21880000  0.47190000  1
  H  H61  1  0.65700000  0.20840000  0.60380000  1
  H  H62  1  0.61190000  0.19190000  0.70840000  1
  H  H63  1  0.24000000  0.19060000  0.61810000  1
  H  H64  1  0.05470000  0.18450000  0.95530000  1
  H  H65  1  0.43110000  0.18070000  0.51830000  1
  H  H66  1  0.61310000  0.17430000  0.36500000  1
  H  H67  1  0.95250000  0.17330000  0.41230000  1
  H  H68  1  0.92380000  0.14220000  0.05780000  1
  H  H69  1  0.21880000  0.08880000  0.97190000  1
  H  H70  1  0.85780000  0.07620000  0.44220000  1
  H  H71  1  0.18450000  0.05470000  0.45530000  1
  H  H72  1  0.82670000  0.04750000  0.08770000  1
  H  H73  1  0.34000000  0.02740000  0.59840000  1
  H  H74  1  0.49180000  0.01540000  0.31750000  1
  H  H75  1  0.44260000  0.00320000  0.42130000  1
  C  C76  1  0.72636000  0.97776000  0.47571000  1
  C  C77  1  0.46060000  0.97120000  0.33315000  1
  C  C78  1  0.43236000  0.96276000  0.39560000  1
  C  C79  1  0.71102000  0.93462000  0.42684000  1
  C  C80  1  0.47079000  0.92739000  0.22556000  1
  C  C81  1  0.80311000  0.91791000  0.51234000  1
  C  C82  1  0.44288000  0.91428000  0.29327000  1
  C  C83  1  0.67125000  0.90865000  0.94087000  1
  C  C84  1  0.36596000  0.90756000  0.91971000  1
  C  C85  1  0.38868000  0.89448000  0.42100000  1
  C  C86  1  0.20283000  0.88643000  0.92943000  1
  C  C87  1  0.81966000  0.86126000  0.00227000  1
  C  C88  1  0.17091000  0.85531000  0.55270000  1
  C  C89  1  0.39944000  0.84724000  0.31762000  1
  C  C90  1  0.77761000  0.84541000  0.95336000  1
  C  C91  1  0.30418000  0.84498000  0.93726000  1
  C  C92  1  0.37243000  0.83723000  0.38068000  1
  C  C93  1  0.77033000  0.83633000  0.41528000  1
  C  C94  1  0.46191000  0.83011000  0.55118000  1
  C  C95  1  0.14469000  0.82909000  0.94730000  1
  C  C96  1  0.86126000  0.81966000  0.50227000  1
  C  C97  1  0.26931000  0.81391000  0.52754000  1
  C  C98  1  0.45120000  0.80940000  0.61488000  1
  C  C99  1  0.55875000  0.80515000  0.52406000  1
  C  C100  1  0.91791000  0.80311000  0.01234000  1
  C  C101  1  0.11357000  0.79717000  0.57057000  1
  C  C102  1  0.84541000  0.77761000  0.45336000  1
  C  C103  1  0.83633000  0.77033000  0.91528000  1
  C  C104  1  0.53250000  0.76570000  0.64877000  1
  C  C105  1  0.64158000  0.75958000  0.55823000  1
  C  C106  1  0.34728000  0.74608000  0.96238000  1
  C  C107  1  0.62859000  0.73879000  0.62103000  1
  C  C108  1  0.18609000  0.73069000  0.97246000  1
  C  C109  1  0.97776000  0.72636000  0.97571000  1
  C  C110  1  0.69323000  0.71763000  0.15864000  1
  C  C111  1  0.93462000  0.71102000  0.92684000  1
  C  C112  1  0.31015000  0.71055000  0.52092000  1
  C  C113  1  0.15502000  0.69582000  0.56274000  1
  C  C114  1  0.71763000  0.69323000  0.65864000  1
  C  C115  1  0.28945000  0.68985000  0.97908000  1
  C  C116  1  0.90865000  0.67125000  0.44087000  1
  C  C117  1  0.25392000  0.65272000  0.53762000  1
  C  C118  1  0.75958000  0.64158000  0.05823000  1
  C  C119  1  0.09244000  0.63404000  0.58029000  1
  C  C120  1  0.73879000  0.62859000  0.12103000  1
  C  C121  1  0.16277000  0.62757000  0.11932000  1
  C  C122  1  0.10552000  0.61132000  0.07900000  1
  C  C123  1  0.15276000  0.60056000  0.18238000  1
  C  C124  1  0.03724000  0.56764000  0.10440000  1
  C  C125  1  0.80515000  0.55875000  0.02406000  1
  C  C126  1  0.08572000  0.55712000  0.20673000  1
  C  C127  1  0.19060000  0.54880000  0.88512000  1
  C  C128  1  0.02880000  0.53940000  0.16685000  1
  C  C129  1  0.16989000  0.53809000  0.94882000  1
  C  C130  1  0.76570000  0.53250000  0.14877000  1
  C  C131  1  0.07261000  0.52921000  0.27444000  1
  C  C132  1  0.92739000  0.47079000  0.72556000  1
  C  C133  1  0.23430000  0.46750000  0.85123000  1
  C  C134  1  0.83011000  0.46191000  0.05118000  1
  C  C135  1  0.97120000  0.46060000  0.83315000  1
  C  C136  1  0.80940000  0.45120000  0.11488000  1
  C  C137  1  0.91428000  0.44288000  0.79327000  1
  C  C138  1  0.19485000  0.44125000  0.97594000  1
  C  C139  1  0.96276000  0.43236000  0.89560000  1
  C  C140  1  0.84724000  0.39944000  0.81762000  1
  C  C141  1  0.89448000  0.38868000  0.92100000  1
  C  C142  1  0.83723000  0.37243000  0.88068000  1
  C  C143  1  0.26121000  0.37141000  0.87897000  1
  C  C144  1  0.90756000  0.36596000  0.41971000  1
  C  C145  1  0.24042000  0.35842000  0.94177000  1
  C  C146  1  0.74608000  0.34728000  0.46238000  1
  C  C147  1  0.09135000  0.32875000  0.55913000  1
  C  C148  1  0.71055000  0.31015000  0.02092000  1
  C  C149  1  0.28237000  0.30677000  0.34136000  1
  C  C150  1  0.84498000  0.30418000  0.43726000  1
  C  C151  1  0.68985000  0.28945000  0.47908000  1
  C  C152  1  0.06538000  0.28898000  0.07316000  1
  C  C153  1  0.30677000  0.28237000  0.84136000  1
  C  C154  1  0.02224000  0.27364000  0.02429000  1
  C  C155  1  0.81391000  0.26931000  0.02754000  1
  C  C156  1  0.37141000  0.26121000  0.37897000  1
  C  C157  1  0.65272000  0.25392000  0.03762000  1
  C  C158  1  0.35842000  0.24042000  0.44177000  1
  C  C159  1  0.46750000  0.23430000  0.35123000  1
  C  C160  1  0.16367000  0.22967000  0.08472000  1
  C  C161  1  0.15459000  0.22239000  0.54664000  1
  C  C162  1  0.88643000  0.20283000  0.42943000  1
  C  C163  1  0.08209000  0.19689000  0.98766000  1
  C  C164  1  0.44125000  0.19485000  0.47594000  1
  C  C165  1  0.54880000  0.19060000  0.38512000  1
  C  C166  1  0.73069000  0.18609000  0.47246000  1
  C  C167  1  0.13874000  0.18034000  0.49773000  1
  C  C168  1  0.85531000  0.17091000  0.05270000  1
  C  C169  1  0.53809000  0.16989000  0.44882000  1
  C  C170  1  0.22967000  0.16367000  0.58472000  1
  C  C171  1  0.62757000  0.16277000  0.61932000  1
  C  C172  1  0.69582000  0.15502000  0.06274000  1
  C  C173  1  0.22239000  0.15459000  0.04664000  1
  C  C174  1  0.60056000  0.15276000  0.68238000  1
  C  C175  1  0.82909000  0.14469000  0.44730000  1
  C  C176  1  0.18034000  0.13874000  0.99773000  1
  C  C177  1  0.79717000  0.11357000  0.07057000  1
  C  C178  1  0.61132000  0.10552000  0.57900000  1
  C  C179  1  0.63404000  0.09244000  0.08029000  1
  C  C180  1  0.32875000  0.09135000  0.05913000  1
  C  C181  1  0.55712000  0.08572000  0.70673000  1
  C  C182  1  0.19689000  0.08209000  0.48766000  1
  C  C183  1  0.52921000  0.07261000  0.77444000  1
  C  C184  1  0.28898000  0.06538000  0.57316000  1
  C  C185  1  0.56764000  0.03724000  0.60440000  1
  C  C186  1  0.53940000  0.02880000  0.66685000  1
  C  C187  1  0.27364000  0.02224000  0.52429000  1
  O  O188  1  0.32623000  0.99371000  0.89200000  1
  O  O189  1  0.51498000  0.98620000  0.20542000  1
  O  O190  1  0.60735000  0.95143000  0.98507000  1
  O  O191  1  0.64646000  0.92074000  0.88723000  1
  O  O192  1  0.44903000  0.87991000  0.18915000  1
  O  O193  1  0.45583000  0.87443000  0.93420000  1
  O  O194  1  0.67026000  0.80434000  0.12962000  1
  O  O195  1  0.68330000  0.70510000  0.21458000  1
  O  O196  1  0.70510000  0.68330000  0.71458000  1
  O  O197  1  0.00629000  0.67377000  0.60800000  1
  O  O198  1  0.80434000  0.67026000  0.62962000  1
  O  O199  1  0.92074000  0.64646000  0.38723000  1
  O  O200  1  0.95143000  0.60735000  0.48507000  1
  O  O201  1  0.12009000  0.55097000  0.31085000  1
  O  O202  1  0.12557000  0.54417000  0.56580000  1
  O  O203  1  0.98620000  0.51498000  0.70542000  1
  O  O204  1  0.01380000  0.48502000  0.29458000  1
  O  O205  1  0.87443000  0.45583000  0.43420000  1
  O  O206  1  0.87991000  0.44903000  0.68915000  1
  O  O207  1  0.04857000  0.39265000  0.51493000  1
  O  O208  1  0.07926000  0.35354000  0.61277000  1
  O  O209  1  0.19566000  0.32974000  0.37038000  1
  O  O210  1  0.99371000  0.32623000  0.39200000  1
  O  O211  1  0.29490000  0.31670000  0.28542000  1
  O  O212  1  0.31670000  0.29490000  0.78542000  1
  O  O213  1  0.32974000  0.19566000  0.87038000  1
  O  O214  1  0.54417000  0.12557000  0.06580000  1
  O  O215  1  0.55097000  0.12009000  0.81085000  1
  O  O216  1  0.35354000  0.07926000  0.11277000  1
  O  O217  1  0.39265000  0.04857000  0.01493000  1
  O  O218  1  0.48502000  0.01380000  0.79458000  1
  O  O219  1  0.67377000  0.00629000  0.10800000  1
