# generated using pymatgen
data_U2H3C9O7
_symmetry_space_group_name_H-M   'P 1'
_cell_length_a   9.83200000
_cell_length_b   11.75000000
_cell_length_c   14.63000000
_cell_angle_alpha   97.73000000
_cell_angle_beta   90.00000000
_cell_angle_gamma   90.00000000
_symmetry_Int_Tables_number   1
_chemical_formula_structural   U2H3C9O7
_chemical_formula_sum   'U8 H12 C36 O28'
_cell_volume   1674.78687492
_cell_formula_units_Z   4
loop_
 _symmetry_equiv_pos_site_id
 _symmetry_equiv_pos_as_xyz
  1  'x, y, z'
loop_
 _atom_site_type_symbol
 _atom_site_label
 _atom_site_symmetry_multiplicity
 _atom_site_fract_x
 _atom_site_fract_y
 _atom_site_fract_z
 _atom_site_occupancy
  U  U0  1  0.64517000  0.97242000  0.27893000  1
  U  U1  1  0.46914000  0.84567000  0.49113000  1
  U  U2  1  0.96914000  0.65433000  0.00887000  1
  U  U3  1  0.14517000  0.52758000  0.22107000  1
  U  U4  1  0.85483000  0.47242000  0.77893000  1
  U  U5  1  0.03086000  0.34567000  0.99113000  1
  U  U6  1  0.53086000  0.15433000  0.50887000  1
  U  U7  1  0.35483000  0.02758000  0.72107000  1
  H  H8  1  0.25230000  0.93780000  0.31200000  1
  H  H9  1  0.04040000  0.87250000  0.86490000  1
  H  H10  1  0.72550000  0.86660000  0.68740000  1
  H  H11  1  0.22550000  0.63340000  0.81260000  1
  H  H12  1  0.54040000  0.62750000  0.63510000  1
  H  H13  1  0.75230000  0.56220000  0.18800000  1
  H  H14  1  0.24770000  0.43780000  0.81200000  1
  H  H15  1  0.45960000  0.37250000  0.36490000  1
  H  H16  1  0.77450000  0.36660000  0.18740000  1
  H  H17  1  0.27450000  0.13340000  0.31260000  1
  H  H18  1  0.95960000  0.12750000  0.13510000  1
  H  H19  1  0.74770000  0.06220000  0.68800000  1
  C  C20  1  0.19540000  0.97580000  0.27530000  1
  C  C21  1  0.00740000  0.97200000  0.16860000  1
  C  C22  1  0.89250000  0.91470000  0.10890000  1
  C  C23  1  0.09850000  0.91430000  0.22050000  1
  C  C24  1  0.98040000  0.91110000  0.83070000  1
  C  C25  1  0.79140000  0.90710000  0.72400000  1
  C  C26  1  0.87710000  0.85000000  0.77830000  1
  C  C27  1  0.09270000  0.78570000  0.21820000  1
  C  C28  1  0.35940000  0.77500000  0.71870000  1
  C  C29  1  0.85940000  0.72500000  0.78130000  1
  C  C30  1  0.59270000  0.71430000  0.28180000  1
  C  C31  1  0.37710000  0.65000000  0.72170000  1
  C  C32  1  0.29140000  0.59290000  0.77600000  1
  C  C33  1  0.48040000  0.58890000  0.66930000  1
  C  C34  1  0.59850000  0.58570000  0.27950000  1
  C  C35  1  0.39250000  0.58530000  0.39110000  1
  C  C36  1  0.50740000  0.52800000  0.33140000  1
  C  C37  1  0.69540000  0.52420000  0.22470000  1
  C  C38  1  0.30460000  0.47580000  0.77530000  1
  C  C39  1  0.49260000  0.47200000  0.66860000  1
  C  C40  1  0.60750000  0.41470000  0.60890000  1
  C  C41  1  0.40150000  0.41430000  0.72050000  1
  C  C42  1  0.51960000  0.41110000  0.33070000  1
  C  C43  1  0.70860000  0.40710000  0.22400000  1
  C  C44  1  0.62290000  0.35000000  0.27830000  1
  C  C45  1  0.40730000  0.28570000  0.71820000  1
  C  C46  1  0.14060000  0.27500000  0.21870000  1
  C  C47  1  0.64060000  0.22500000  0.28130000  1
  C  C48  1  0.90730000  0.21430000  0.78180000  1
  C  C49  1  0.12290000  0.15000000  0.22170000  1
  C  C50  1  0.20860000  0.09290000  0.27600000  1
  C  C51  1  0.01960000  0.08890000  0.16930000  1
  C  C52  1  0.90150000  0.08570000  0.77950000  1
  C  C53  1  0.10750000  0.08530000  0.89110000  1
  C  C54  1  0.99260000  0.02800000  0.83140000  1
  C  C55  1  0.80460000  0.02420000  0.72470000  1
  O  O56  1  0.53270000  0.98850000  0.41120000  1
  O  O57  1  0.76930000  0.93180000  0.13410000  1
  O  O58  1  0.92570000  0.85910000  0.03100000  1
  O  O59  1  0.29920000  0.83970000  0.78110000  1
  O  O60  1  0.41130000  0.81930000  0.65130000  1
  O  O61  1  0.50490000  0.76980000  0.33160000  1
  O  O62  1  0.67450000  0.76370000  0.23630000  1
  O  O63  1  0.17450000  0.73630000  0.26370000  1
  O  O64  1  0.00490000  0.73020000  0.16840000  1
  O  O65  1  0.91130000  0.68070000  0.84870000  1
  O  O66  1  0.79920000  0.66030000  0.71890000  1
  O  O67  1  0.42570000  0.64090000  0.46900000  1
  O  O68  1  0.26930000  0.56820000  0.36590000  1
  O  O69  1  0.03270000  0.51150000  0.08880000  1
  O  O70  1  0.96730000  0.48850000  0.91120000  1
  O  O71  1  0.73070000  0.43180000  0.63410000  1
  O  O72  1  0.57430000  0.35910000  0.53100000  1
  O  O73  1  0.20080000  0.33970000  0.28110000  1
  O  O74  1  0.08870000  0.31930000  0.15130000  1
  O  O75  1  0.99510000  0.26980000  0.83160000  1
  O  O76  1  0.82550000  0.26370000  0.73630000  1
  O  O77  1  0.32550000  0.23630000  0.76370000  1
  O  O78  1  0.49510000  0.23020000  0.66840000  1
  O  O79  1  0.58870000  0.18070000  0.34870000  1
  O  O80  1  0.70080000  0.16030000  0.21890000  1
  O  O81  1  0.07430000  0.14090000  0.96900000  1
  O  O82  1  0.23070000  0.06820000  0.86590000  1
  O  O83  1  0.46730000  0.01150000  0.58880000  1
