# generated using pymatgen
data_Zn2H18C40S(N2O5)2
_symmetry_space_group_name_H-M   'P 1'
_cell_length_a   12.50514790
_cell_length_b   12.50514790
_cell_length_c   13.28620000
_cell_angle_alpha   86.59444688
_cell_angle_beta   86.59444688
_cell_angle_gamma   76.66273516
_symmetry_Int_Tables_number   1
_chemical_formula_structural   Zn2H18C40S(N2O5)2
_chemical_formula_sum   'Zn4 H36 C80 S2 N8 O20'
_cell_volume   2015.83703264
_cell_formula_units_Z   2
loop_
 _symmetry_equiv_pos_site_id
 _symmetry_equiv_pos_as_xyz
  1  'x, y, z'
loop_
 _atom_site_type_symbol
 _atom_site_label
 _atom_site_symmetry_multiplicity
 _atom_site_fract_x
 _atom_site_fract_y
 _atom_site_fract_z
 _atom_site_occupancy
  C  C0  1  0.28050000  0.79410000  0.42460000  1
  C  C1  1  0.79410000  0.28050000  0.92460000  1
  C  C2  1  0.04030000  0.03470000  0.47920000  1
  C  C3  1  0.03470000  0.04030000  0.97920000  1
  C  C4  1  0.29090000  0.80590000  0.32270000  1
  C  C5  1  0.80590000  0.29090000  0.82270000  1
  C  C6  1  0.09570000  0.02270000  0.89070000  1
  C  C7  1  0.02270000  0.09570000  0.39070000  1
  C  C8  1  0.37250000  0.78210000  0.48050000  1
  C  C9  1  0.78210000  0.37250000  0.98050000  1
  C  C10  1  0.13410000  0.03410000  0.52790000  1
  C  C11  1  0.03410000  0.13410000  0.02790000  1
  C  C12  1  0.39190000  0.80350000  0.27430000  1
  C  C13  1  0.80350000  0.39190000  0.77430000  1
  C  C14  1  0.15430000  0.09950000  0.85450000  1
  C  C15  1  0.09950000  0.15430000  0.35450000  1
  C  C16  1  0.47470000  0.78050000  0.43530000  1
  C  C17  1  0.78050000  0.47470000  0.93530000  1
  C  C18  1  0.48660000  0.78920000  0.32910000  1
  C  C19  1  0.78920000  0.48660000  0.82910000  1
  C  C20  1  0.20750000  0.09190000  0.48620000  1
  C  C21  1  0.09190000  0.20750000  0.98620000  1
  C  C22  1  0.57350000  0.76050000  0.49860000  1
  C  C23  1  0.76050000  0.57350000  0.99860000  1
  C  C24  1  0.47940000  0.88000000  0.91540000  1
  C  C25  1  0.88000000  0.47940000  0.41540000  1
  C  C26  1  0.53340000  0.82700000  0.83080000  1
  C  C27  1  0.82700000  0.53340000  0.33080000  1
  C  C28  1  0.59490000  0.78630000  0.27580000  1
  C  C29  1  0.78630000  0.59490000  0.77580000  1
  C  C30  1  0.36620000  0.04040000  0.07260000  1
  C  C31  1  0.04040000  0.36620000  0.57260000  1
  C  C32  1  0.32420000  0.09300000  0.15730000  1
  C  C33  1  0.09300000  0.32420000  0.65730000  1
  C  C34  1  0.51330000  0.90970000  0.78840000  1
  C  C35  1  0.90970000  0.51330000  0.28840000  1
  C  C36  1  0.45930000  0.97050000  0.87040000  1
  C  C37  1  0.97050000  0.45930000  0.37040000  1
  C  C38  1  0.52620000  0.97000000  0.95550000  1
  C  C39  1  0.97000000  0.52620000  0.45550000  1
  C  C40  1  0.47380000  0.03000000  0.04450000  1
  C  C41  1  0.03000000  0.47380000  0.54450000  1
  C  C42  1  0.54070000  0.02950000  0.12960000  1
  C  C43  1  0.02950000  0.54070000  0.62960000  1
  C  C44  1  0.48670000  0.09030000  0.21160000  1
  C  C45  1  0.09030000  0.48670000  0.71160000  1
  C  C46  1  0.67580000  0.90700000  0.84270000  1
  C  C47  1  0.90700000  0.67580000  0.34270000  1
  C  C48  1  0.63380000  0.95960000  0.92740000  1
  C  C49  1  0.95960000  0.63380000  0.42740000  1
  C  C50  1  0.40510000  0.21370000  0.72420000  1
  C  C51  1  0.21370000  0.40510000  0.22420000  1
  C  C52  1  0.46660000  0.17300000  0.16920000  1
  C  C53  1  0.17300000  0.46660000  0.66920000  1
  C  C54  1  0.52060000  0.12000000  0.08460000  1
  C  C55  1  0.12000000  0.52060000  0.58460000  1
  C  C56  1  0.42650000  0.23950000  0.50140000  1
  C  C57  1  0.23950000  0.42650000  0.00140000  1
  C  C58  1  0.79250000  0.90810000  0.51380000  1
  C  C59  1  0.90810000  0.79250000  0.01380000  1
  C  C60  1  0.51340000  0.21080000  0.67090000  1
  C  C61  1  0.21080000  0.51340000  0.17090000  1
  C  C62  1  0.52530000  0.21950000  0.56470000  1
  C  C63  1  0.21950000  0.52530000  0.06470000  1
  C  C64  1  0.84570000  0.90050000  0.14550000  1
  C  C65  1  0.90050000  0.84570000  0.64550000  1
  C  C66  1  0.60810000  0.19650000  0.72570000  1
  C  C67  1  0.19650000  0.60810000  0.22570000  1
  C  C68  1  0.86590000  0.96590000  0.47210000  1
  C  C69  1  0.96590000  0.86590000  0.97210000  1
  C  C70  1  0.62750000  0.21790000  0.51950000  1
  C  C71  1  0.21790000  0.62750000  0.01950000  1
  C  C72  1  0.90430000  0.97730000  0.10930000  1
  C  C73  1  0.97730000  0.90430000  0.60930000  1
  C  C74  1  0.70910000  0.19410000  0.67730000  1
  C  C75  1  0.19410000  0.70910000  0.17730000  1
  C  C76  1  0.95970000  0.96530000  0.52080000  1
  C  C77  1  0.96530000  0.95970000  0.02080000  1
  C  C78  1  0.71950000  0.20590000  0.57540000  1
  C  C79  1  0.20590000  0.71950000  0.07540000  1
  H  H80  1  0.21230000  0.79410000  0.45650000  1
  H  H81  1  0.79410000  0.21230000  0.95650000  1
  H  H82  1  0.09780000  0.96020000  0.85520000  1
  H  H83  1  0.96020000  0.09780000  0.35520000  1
  H  H84  1  0.36520000  0.77500000  0.55050000  1
  H  H85  1  0.77500000  0.36520000  0.05050000  1
  H  H86  1  0.14780000  0.99460000  0.58910000  1
  H  H87  1  0.99460000  0.14780000  0.08910000  1
  H  H88  1  0.39720000  0.81140000  0.20430000  1
  H  H89  1  0.81140000  0.39720000  0.70430000  1
  H  H90  1  0.19640000  0.08620000  0.79460000  1
  H  H91  1  0.08620000  0.19640000  0.29460000  1
  H  H92  1  0.32120000  0.01160000  0.03380000  1
  H  H93  1  0.01160000  0.32120000  0.53380000  1
  H  H94  1  0.25070000  0.09550000  0.17550000  1
  H  H95  1  0.09550000  0.25070000  0.67550000  1
  H  H96  1  0.27210000  0.08810000  0.51890000  1
  H  H97  1  0.08810000  0.27210000  0.01890000  1
  H  H98  1  0.72790000  0.91190000  0.48110000  1
  H  H99  1  0.91190000  0.72790000  0.98110000  1
  H  H100  1  0.74930000  0.90450000  0.82450000  1
  H  H101  1  0.90450000  0.74930000  0.32450000  1
  H  H102  1  0.67880000  0.98840000  0.96620000  1
  H  H103  1  0.98840000  0.67880000  0.46620000  1
  H  H104  1  0.80360000  0.91380000  0.20540000  1
  H  H105  1  0.91380000  0.80360000  0.70540000  1
  H  H106  1  0.60280000  0.18860000  0.79570000  1
  H  H107  1  0.18860000  0.60280000  0.29570000  1
  H  H108  1  0.85220000  0.00540000  0.41090000  1
  H  H109  1  0.00540000  0.85220000  0.91090000  1
  H  H110  1  0.63480000  0.22500000  0.44950000  1
  H  H111  1  0.22500000  0.63480000  0.94950000  1
  H  H112  1  0.90220000  0.03980000  0.14480000  1
  H  H113  1  0.03980000  0.90220000  0.64480000  1
  H  H114  1  0.78770000  0.20590000  0.54350000  1
  H  H115  1  0.20590000  0.78770000  0.04350000  1
  N  N116  1  0.19050000  0.15370000  0.40050000  1
  N  N117  1  0.15370000  0.19050000  0.90050000  1
  N  N118  1  0.62270000  0.86070000  0.78540000  1
  N  N119  1  0.86070000  0.62270000  0.28540000  1
  N  N120  1  0.37730000  0.13930000  0.21460000  1
  N  N121  1  0.13930000  0.37730000  0.71460000  1
  N  N122  1  0.80950000  0.84630000  0.59950000  1
  N  N123  1  0.84630000  0.80950000  0.09950000  1
  O  O124  1  0.17200000  0.92100000  0.18090000  1
  O  O125  1  0.92100000  0.17200000  0.68090000  1
  O  O126  1  0.62110000  0.71770000  0.20710000  1
  O  O127  1  0.71770000  0.62110000  0.70710000  1
  O  O128  1  0.65710000  0.69250000  0.47640000  1
  O  O129  1  0.69250000  0.65710000  0.97640000  1
  O  O130  1  0.56100000  0.81580000  0.57750000  1
  O  O131  1  0.81580000  0.56100000  0.07750000  1
  O  O132  1  0.34540000  0.15260000  0.70200000  1
  O  O133  1  0.15260000  0.34540000  0.20200000  1
  O  O134  1  0.65460000  0.84740000  0.29800000  1
  O  O135  1  0.84740000  0.65460000  0.79800000  1
  O  O136  1  0.43900000  0.18420000  0.42250000  1
  O  O137  1  0.18420000  0.43900000  0.92250000  1
  O  O138  1  0.34290000  0.30750000  0.52360000  1
  O  O139  1  0.30750000  0.34290000  0.02360000  1
  O  O140  1  0.37890000  0.28230000  0.79290000  1
  O  O141  1  0.28230000  0.37890000  0.29290000  1
  O  O142  1  0.82800000  0.07900000  0.81910000  1
  O  O143  1  0.07900000  0.82800000  0.31910000  1
  S  S144  1  0.17290000  0.82710000  0.25000000  1
  S  S145  1  0.82710000  0.17290000  0.75000000  1
  Zn  Zn146  1  0.69018000  0.77350000  0.66058000  1
  Zn  Zn147  1  0.77350000  0.69018000  0.16058000  1
  Zn  Zn148  1  0.30982000  0.22650000  0.33942000  1
  Zn  Zn149  1  0.22650000  0.30982000  0.83942000  1
