# generated using pymatgen
data_Fe3H32C54N2O13
_symmetry_space_group_name_H-M   'P 1'
_cell_length_a   18.56400000
_cell_length_b   27.00500000
_cell_length_c   36.38900000
_cell_angle_alpha   98.84800000
_cell_angle_beta   90.00000000
_cell_angle_gamma   90.00000000
_symmetry_Int_Tables_number   1
_chemical_formula_structural   Fe3H32C54N2O13
_chemical_formula_sum   'Fe12 H128 C216 N8 O52'
_cell_volume   18025.47443590
_cell_formula_units_Z   4
loop_
 _symmetry_equiv_pos_site_id
 _symmetry_equiv_pos_as_xyz
  1  'x, y, z'
loop_
 _atom_site_type_symbol
 _atom_site_label
 _atom_site_symmetry_multiplicity
 _atom_site_fract_x
 _atom_site_fract_y
 _atom_site_fract_z
 _atom_site_occupancy
  Fe  Fe0  1  0.77610000  0.80948000  0.85315000  1
  Fe  Fe1  1  0.72390000  0.80948000  0.35315000  1
  Fe  Fe2  1  0.90823000  0.76114000  0.79850000  1
  Fe  Fe3  1  0.59177000  0.76114000  0.29850000  1
  Fe  Fe4  1  0.85098000  0.70349000  0.86671000  1
  Fe  Fe5  1  0.64902000  0.70349000  0.36671000  1
  Fe  Fe6  1  0.35098000  0.29651000  0.63329000  1
  Fe  Fe7  1  0.14902000  0.29651000  0.13329000  1
  Fe  Fe8  1  0.40823000  0.23886000  0.70150000  1
  Fe  Fe9  1  0.09177000  0.23886000  0.20150000  1
  Fe  Fe10  1  0.27610000  0.19052000  0.64685000  1
  Fe  Fe11  1  0.22390000  0.19052000  0.14685000  1
  H  H12  1  0.97430000  0.97660000  0.06380000  1
  H  H13  1  0.52570000  0.97660000  0.56380000  1
  H  H14  1  0.44020000  0.97460000  0.60280000  1
  H  H15  1  0.05980000  0.97460000  0.10280000  1
  H  H16  1  0.39730000  0.96670000  0.33110000  1
  H  H17  1  0.10270000  0.96670000  0.83110000  1
  H  H18  1  0.87300000  0.95280000  0.87990000  1
  H  H19  1  0.62700000  0.95280000  0.37990000  1
  H  H20  1  0.90500000  0.94200000  0.17790000  1
  H  H21  1  0.59500000  0.94200000  0.67790000  1
  H  H22  1  0.94340000  0.93470000  0.03540000  1
  H  H23  1  0.55660000  0.93470000  0.53540000  1
  H  H24  1  0.81370000  0.91430000  0.02460000  1
  H  H25  1  0.68630000  0.91430000  0.52460000  1
  H  H26  1  0.46450000  0.89320000  0.31540000  1
  H  H27  1  0.03550000  0.89320000  0.81540000  1
  H  H28  1  0.79380000  0.87900000  0.96380000  1
  H  H29  1  0.70620000  0.87900000  0.46380000  1
  H  H30  1  0.90680000  0.87670000  0.21440000  1
  H  H31  1  0.59320000  0.87670000  0.71440000  1
  H  H32  1  0.85110000  0.84890000  0.26450000  1
  H  H33  1  0.64890000  0.84890000  0.76450000  1
  H  H34  1  0.76390000  0.83540000  0.65130000  1
  H  H35  1  0.73610000  0.83540000  0.15130000  1
  H  H36  1  0.82330000  0.82980000  0.10420000  1
  H  H37  1  0.67670000  0.82980000  0.60420000  1
  H  H38  1  0.81780000  0.80330000  0.70010000  1
  H  H39  1  0.68220000  0.80330000  0.20010000  1
  H  H40  1  0.91690000  0.79220000  0.04440000  1
  H  H41  1  0.58310000  0.79220000  0.54440000  1
  H  H42  1  0.89760000  0.75540000  0.98290000  1
  H  H43  1  0.60240000  0.75540000  0.48290000  1
  H  H44  1  0.93910000  0.75140000  0.34570000  1
  H  H45  1  0.56090000  0.75140000  0.84570000  1
  H  H46  1  0.37370000  0.73160000  0.31400000  1
  H  H47  1  0.12630000  0.73160000  0.81400000  1
  H  H48  1  0.45130000  0.70940000  0.83640000  1
  H  H49  1  0.04870000  0.70940000  0.33640000  1
  H  H50  1  0.26100000  0.69330000  0.31030000  1
  H  H51  1  0.23900000  0.69330000  0.81030000  1
  H  H52  1  0.34920000  0.67190000  0.85750000  1
  H  H53  1  0.15080000  0.67190000  0.35750000  1
  H  H54  1  0.43730000  0.64120000  0.38270000  1
  H  H55  1  0.06270000  0.64120000  0.88270000  1
  H  H56  1  0.84720000  0.62530000  0.36910000  1
  H  H57  1  0.65280000  0.62530000  0.86910000  1
  H  H58  1  0.91880000  0.62370000  0.71940000  1
  H  H59  1  0.58120000  0.62370000  0.21940000  1
  H  H60  1  0.32830000  0.60090000  0.37680000  1
  H  H61  1  0.17170000  0.60090000  0.87680000  1
  H  H62  1  0.95480000  0.58320000  0.35740000  1
  H  H63  1  0.54520000  0.58320000  0.85740000  1
  H  H64  1  0.80650000  0.56720000  0.79740000  1
  H  H65  1  0.69350000  0.56720000  0.29740000  1
  H  H66  1  0.31860000  0.55390000  0.31420000  1
  H  H67  1  0.18140000  0.55390000  0.81420000  1
  H  H68  1  0.46290000  0.54960000  0.81140000  1
  H  H69  1  0.03710000  0.54960000  0.31140000  1
  H  H70  1  0.91230000  0.54620000  0.68070000  1
  H  H71  1  0.58770000  0.54620000  0.18070000  1
  H  H72  1  0.29680000  0.50930000  0.74260000  1
  H  H73  1  0.20320000  0.50930000  0.24260000  1
  H  H74  1  0.27610000  0.50800000  0.29660000  1
  H  H75  1  0.22390000  0.50800000  0.79660000  1
  H  H76  1  0.77610000  0.49200000  0.20340000  1
  H  H77  1  0.72390000  0.49200000  0.70340000  1
  H  H78  1  0.79680000  0.49070000  0.75740000  1
  H  H79  1  0.70320000  0.49070000  0.25740000  1
  H  H80  1  0.41230000  0.45380000  0.81930000  1
  H  H81  1  0.08770000  0.45380000  0.31930000  1
  H  H82  1  0.96290000  0.45040000  0.68860000  1
  H  H83  1  0.53710000  0.45040000  0.18860000  1
  H  H84  1  0.81860000  0.44610000  0.18580000  1
  H  H85  1  0.68140000  0.44610000  0.68580000  1
  H  H86  1  0.30650000  0.43280000  0.70260000  1
  H  H87  1  0.19350000  0.43280000  0.20260000  1
  H  H88  1  0.45480000  0.41680000  0.14260000  1
  H  H89  1  0.04520000  0.41680000  0.64260000  1
  H  H90  1  0.82830000  0.39910000  0.12320000  1
  H  H91  1  0.67170000  0.39910000  0.62320000  1
  H  H92  1  0.41880000  0.37630000  0.78060000  1
  H  H93  1  0.08120000  0.37630000  0.28060000  1
  H  H94  1  0.34720000  0.37470000  0.13090000  1
  H  H95  1  0.15280000  0.37470000  0.63090000  1
  H  H96  1  0.93730000  0.35880000  0.11730000  1
  H  H97  1  0.56270000  0.35880000  0.61730000  1
  H  H98  1  0.84920000  0.32810000  0.64250000  1
  H  H99  1  0.65080000  0.32810000  0.14250000  1
  H  H100  1  0.76100000  0.30670000  0.18970000  1
  H  H101  1  0.73900000  0.30670000  0.68970000  1
  H  H102  1  0.95130000  0.29060000  0.66360000  1
  H  H103  1  0.54870000  0.29060000  0.16360000  1
  H  H104  1  0.87370000  0.26840000  0.18600000  1
  H  H105  1  0.62630000  0.26840000  0.68600000  1
  H  H106  1  0.43910000  0.24860000  0.15430000  1
  H  H107  1  0.06090000  0.24860000  0.65430000  1
  H  H108  1  0.39760000  0.24460000  0.51710000  1
  H  H109  1  0.10240000  0.24460000  0.01710000  1
  H  H110  1  0.41690000  0.20780000  0.45560000  1
  H  H111  1  0.08310000  0.20780000  0.95560000  1
  H  H112  1  0.31780000  0.19670000  0.79990000  1
  H  H113  1  0.18220000  0.19670000  0.29990000  1
  H  H114  1  0.32330000  0.17020000  0.39580000  1
  H  H115  1  0.17670000  0.17020000  0.89580000  1
  H  H116  1  0.26390000  0.16460000  0.84870000  1
  H  H117  1  0.23610000  0.16460000  0.34870000  1
  H  H118  1  0.35110000  0.15110000  0.23550000  1
  H  H119  1  0.14890000  0.15110000  0.73550000  1
  H  H120  1  0.40680000  0.12330000  0.28560000  1
  H  H121  1  0.09320000  0.12330000  0.78560000  1
  H  H122  1  0.29380000  0.12100000  0.53620000  1
  H  H123  1  0.20620000  0.12100000  0.03620000  1
  H  H124  1  0.96450000  0.10680000  0.18460000  1
  H  H125  1  0.53550000  0.10680000  0.68460000  1
  H  H126  1  0.31370000  0.08570000  0.47540000  1
  H  H127  1  0.18630000  0.08570000  0.97540000  1
  H  H128  1  0.44340000  0.06530000  0.46460000  1
  H  H129  1  0.05660000  0.06530000  0.96460000  1
  H  H130  1  0.40500000  0.05800000  0.32210000  1
  H  H131  1  0.09500000  0.05800000  0.82210000  1
  H  H132  1  0.37300000  0.04720000  0.62010000  1
  H  H133  1  0.12700000  0.04720000  0.12010000  1
  H  H134  1  0.89730000  0.03330000  0.16890000  1
  H  H135  1  0.60270000  0.03330000  0.66890000  1
  H  H136  1  0.94020000  0.02540000  0.89720000  1
  H  H137  1  0.55980000  0.02540000  0.39720000  1
  H  H138  1  0.47430000  0.02340000  0.43620000  1
  H  H139  1  0.02570000  0.02340000  0.93620000  1
  C  C140  1  0.96000000  0.99882000  0.88006000  1
  C  C141  1  0.54000000  0.99882000  0.38006000  1
  C  C142  1  0.97220000  0.99564000  0.13453000  1
  C  C143  1  0.52780000  0.99564000  0.63453000  1
  C  C144  1  0.44400000  0.96425000  0.34133000  1
  C  C145  1  0.05600000  0.96425000  0.84133000  1
  C  C146  1  0.92020000  0.95521000  0.87026000  1
  C  C147  1  0.57980000  0.95521000  0.37026000  1
  C  C148  1  0.93034000  0.94769000  0.12512000  1
  C  C149  1  0.56966000  0.94769000  0.62512000  1
  C  C150  1  0.89898000  0.92589000  0.15298000  1
  C  C151  1  0.60102000  0.92589000  0.65298000  1
  C  C152  1  0.91950000  0.92493000  0.08871000  1
  C  C153  1  0.58050000  0.92493000  0.58871000  1
  C  C154  1  0.48400000  0.92035000  0.33211000  1
  C  C155  1  0.01600000  0.92035000  0.83211000  1
  C  C156  1  0.94890000  0.91603000  0.84694000  1
  C  C157  1  0.55110000  0.91603000  0.34694000  1
  C  C158  1  0.85910000  0.88191000  0.14703000  1
  C  C159  1  0.64090000  0.88191000  0.64703000  1
  C  C160  1  0.83100000  0.88135000  0.01636000  1
  C  C161  1  0.66900000  0.88135000  0.51636000  1
  C  C162  1  0.87898000  0.88129000  0.08020000  1
  C  C163  1  0.62102000  0.88129000  0.58020000  1
  C  C164  1  0.90770000  0.86857000  0.83735000  1
  C  C165  1  0.59230000  0.86857000  0.33735000  1
  C  C166  1  0.85970000  0.86289000  0.21141000  1
  C  C167  1  0.64030000  0.86289000  0.71141000  1
  C  C168  1  0.82520000  0.86073000  0.17742000  1
  C  C169  1  0.67480000  0.86073000  0.67742000  1
  C  C170  1  0.81865000  0.86054000  0.98005000  1
  C  C171  1  0.68135000  0.86054000  0.48005000  1
  C  C172  1  0.85004000  0.86004000  0.10959000  1
  C  C173  1  0.64996000  0.86004000  0.60959000  1
  C  C174  1  0.86655000  0.85747000  0.04100000  1
  C  C175  1  0.63345000  0.85747000  0.54100000  1
  C  C176  1  0.82700000  0.84533000  0.24121000  1
  C  C177  1  0.67300000  0.84533000  0.74121000  1
  C  C178  1  0.76060000  0.83834000  0.17445000  1
  C  C179  1  0.73940000  0.83834000  0.67445000  1
  C  C180  1  0.76190000  0.82332000  0.23767000  1
  C  C181  1  0.73810000  0.82332000  0.73767000  1
  C  C182  1  0.77210000  0.81921000  0.70362000  1
  C  C183  1  0.72790000  0.81921000  0.20362000  1
  C  C184  1  0.84247000  0.81281000  0.96751000  1
  C  C185  1  0.65753000  0.81281000  0.46751000  1
  C  C186  1  0.89132000  0.81019000  0.02806000  1
  C  C187  1  0.60868000  0.81019000  0.52806000  1
  C  C188  1  0.77630000  0.80587000  0.76958000  1
  C  C189  1  0.72370000  0.80587000  0.26958000  1
  C  C190  1  0.82976000  0.79007000  0.92876000  1
  C  C191  1  0.67024000  0.79007000  0.42876000  1
  C  C192  1  0.87952000  0.78811000  0.99138000  1
  C  C193  1  0.62048000  0.78811000  0.49138000  1
  C  C194  1  0.80960000  0.71947000  0.36154000  1
  C  C195  1  0.69040000  0.71947000  0.86154000  1
  C  C196  1  0.94180000  0.71690000  0.34812000  1
  C  C197  1  0.55820000  0.71690000  0.84812000  1
  C  C198  1  0.49194000  0.71057000  0.34626000  1
  C  C199  1  0.00806000  0.71057000  0.84626000  1
  C  C200  1  0.36557000  0.70435000  0.32710000  1
  C  C201  1  0.13443000  0.70435000  0.82710000  1
  C  C202  1  0.88030000  0.69184000  0.35728000  1
  C  C203  1  0.61970000  0.69184000  0.85728000  1
  C  C204  1  0.49270000  0.69162000  0.84245000  1
  C  C205  1  0.00730000  0.69162000  0.34245000  1
  C  C206  1  0.41892000  0.68938000  0.34743000  1
  C  C207  1  0.08108000  0.68938000  0.84743000  1
  C  C208  1  0.29786000  0.68088000  0.32459000  1
  C  C209  1  0.20214000  0.68088000  0.82459000  1
  C  C210  1  0.87004000  0.65181000  0.78781000  1
  C  C211  1  0.62996000  0.65181000  0.28781000  1
  C  C212  1  0.40227000  0.65168000  0.36650000  1
  C  C213  1  0.09773000  0.65168000  0.86650000  1
  C  C214  1  0.88769000  0.64278000  0.36152000  1
  C  C215  1  0.61231000  0.64278000  0.86152000  1
  C  C216  1  0.48620000  0.64163000  0.84538000  1
  C  C217  1  0.01380000  0.64163000  0.34538000  1
  C  C218  1  0.28367000  0.64112000  0.34192000  1
  C  C219  1  0.21633000  0.64112000  0.84192000  1
  C  C220  1  0.35047000  0.63845000  0.84475000  1
  C  C221  1  0.14953000  0.63845000  0.34475000  1
  C  C222  1  0.33640000  0.62783000  0.36331000  1
  C  C223  1  0.16360000  0.62783000  0.86331000  1
  C  C224  1  0.95240000  0.61776000  0.35510000  1
  C  C225  1  0.54760000  0.61776000  0.85510000  1
  C  C226  1  0.41744000  0.61551000  0.83650000  1
  C  C227  1  0.08256000  0.61551000  0.33650000  1
  C  C228  1  0.28722000  0.61455000  0.83509000  1
  C  C229  1  0.21278000  0.61455000  0.33509000  1
  C  C230  1  0.86452000  0.60311000  0.76203000  1
  C  C231  1  0.63548000  0.60311000  0.26203000  1
  C  C232  1  0.89459000  0.59653000  0.72785000  1
  C  C233  1  0.60541000  0.59653000  0.22785000  1
  C  C234  1  0.41825000  0.56601000  0.81746000  1
  C  C235  1  0.08175000  0.56601000  0.31746000  1
  C  C236  1  0.28844000  0.56558000  0.81696000  1
  C  C237  1  0.21156000  0.56558000  0.31696000  1
  C  C238  1  0.82810000  0.56335000  0.77345000  1
  C  C239  1  0.67190000  0.56335000  0.27345000  1
  C  C240  1  0.89050000  0.55000000  0.70462000  1
  C  C241  1  0.60950000  0.55000000  0.20462000  1
  C  C242  1  0.35426000  0.54131000  0.80764000  1
  C  C243  1  0.14574000  0.54131000  0.30764000  1
  C  C244  1  0.82330000  0.51741000  0.74971000  1
  C  C245  1  0.67670000  0.51741000  0.24971000  1
  C  C246  1  0.85615000  0.51022000  0.71546000  1
  C  C247  1  0.64385000  0.51022000  0.21546000  1
  C  C248  1  0.35615000  0.48978000  0.78454000  1
  C  C249  1  0.14385000  0.48978000  0.28454000  1
  C  C250  1  0.32330000  0.48259000  0.75029000  1
  C  C251  1  0.17670000  0.48259000  0.25029000  1
  C  C252  1  0.85426000  0.45869000  0.69236000  1
  C  C253  1  0.64574000  0.45869000  0.19236000  1
  C  C254  1  0.39050000  0.45000000  0.79538000  1
  C  C255  1  0.10950000  0.45000000  0.29538000  1
  C  C256  1  0.32810000  0.43665000  0.72655000  1
  C  C257  1  0.17190000  0.43665000  0.22655000  1
  C  C258  1  0.78844000  0.43442000  0.68304000  1
  C  C259  1  0.71156000  0.43442000  0.18304000  1
  C  C260  1  0.91825000  0.43399000  0.68254000  1
  C  C261  1  0.58175000  0.43399000  0.18254000  1
  C  C262  1  0.39459000  0.40347000  0.77215000  1
  C  C263  1  0.10541000  0.40347000  0.27215000  1
  C  C264  1  0.36452000  0.39689000  0.73797000  1
  C  C265  1  0.13548000  0.39689000  0.23797000  1
  C  C266  1  0.78722000  0.38545000  0.66491000  1
  C  C267  1  0.71278000  0.38545000  0.16491000  1
  C  C268  1  0.91744000  0.38449000  0.66350000  1
  C  C269  1  0.58256000  0.38449000  0.16350000  1
  C  C270  1  0.45240000  0.38224000  0.14490000  1
  C  C271  1  0.04760000  0.38224000  0.64490000  1
  C  C272  1  0.83640000  0.37217000  0.13669000  1
  C  C273  1  0.66360000  0.37217000  0.63669000  1
  C  C274  1  0.85047000  0.36155000  0.65525000  1
  C  C275  1  0.64953000  0.36155000  0.15525000  1
  C  C276  1  0.78367000  0.35888000  0.15808000  1
  C  C277  1  0.71633000  0.35888000  0.65808000  1
  C  C278  1  0.98620000  0.35837000  0.65462000  1
  C  C279  1  0.51380000  0.35837000  0.15462000  1
  C  C280  1  0.38769000  0.35722000  0.13848000  1
  C  C281  1  0.11231000  0.35722000  0.63848000  1
  C  C282  1  0.90227000  0.34832000  0.13350000  1
  C  C283  1  0.59773000  0.34832000  0.63350000  1
  C  C284  1  0.37004000  0.34819000  0.71219000  1
  C  C285  1  0.12996000  0.34819000  0.21219000  1
  C  C286  1  0.79786000  0.31912000  0.17541000  1
  C  C287  1  0.70214000  0.31912000  0.67541000  1
  C  C288  1  0.91892000  0.31062000  0.15257000  1
  C  C289  1  0.58108000  0.31062000  0.65257000  1
  C  C290  1  0.99270000  0.30838000  0.65755000  1
  C  C291  1  0.50730000  0.30838000  0.15755000  1
  C  C292  1  0.38030000  0.30816000  0.14272000  1
  C  C293  1  0.11970000  0.30816000  0.64272000  1
  C  C294  1  0.86557000  0.29565000  0.17290000  1
  C  C295  1  0.63443000  0.29565000  0.67290000  1
  C  C296  1  0.99194000  0.28943000  0.15374000  1
  C  C297  1  0.50806000  0.28943000  0.65374000  1
  C  C298  1  0.44180000  0.28310000  0.15188000  1
  C  C299  1  0.05820000  0.28310000  0.65188000  1
  C  C300  1  0.30960000  0.28053000  0.13846000  1
  C  C301  1  0.19040000  0.28053000  0.63846000  1
  C  C302  1  0.37952000  0.21189000  0.50862000  1
  C  C303  1  0.12048000  0.21189000  0.00862000  1
  C  C304  1  0.32976000  0.20993000  0.57124000  1
  C  C305  1  0.17024000  0.20993000  0.07124000  1
  C  C306  1  0.27630000  0.19413000  0.73042000  1
  C  C307  1  0.22370000  0.19413000  0.23042000  1
  C  C308  1  0.39132000  0.18981000  0.47194000  1
  C  C309  1  0.10868000  0.18981000  0.97194000  1
  C  C310  1  0.34247000  0.18719000  0.53249000  1
  C  C311  1  0.15753000  0.18719000  0.03249000  1
  C  C312  1  0.27210000  0.18079000  0.79638000  1
  C  C313  1  0.22790000  0.18079000  0.29638000  1
  C  C314  1  0.26190000  0.17668000  0.26233000  1
  C  C315  1  0.23810000  0.17668000  0.76233000  1
  C  C316  1  0.26060000  0.16166000  0.32555000  1
  C  C317  1  0.23940000  0.16166000  0.82555000  1
  C  C318  1  0.32700000  0.15467000  0.25879000  1
  C  C319  1  0.17300000  0.15467000  0.75879000  1
  C  C320  1  0.36655000  0.14253000  0.45900000  1
  C  C321  1  0.13345000  0.14253000  0.95900000  1
  C  C322  1  0.35004000  0.13996000  0.39041000  1
  C  C323  1  0.14996000  0.13996000  0.89041000  1
  C  C324  1  0.31865000  0.13946000  0.51995000  1
  C  C325  1  0.18135000  0.13946000  0.01995000  1
  C  C326  1  0.32520000  0.13927000  0.32258000  1
  C  C327  1  0.17480000  0.13927000  0.82258000  1
  C  C328  1  0.35970000  0.13711000  0.28859000  1
  C  C329  1  0.14030000  0.13711000  0.78859000  1
  C  C330  1  0.40770000  0.13143000  0.66265000  1
  C  C331  1  0.09230000  0.13143000  0.16265000  1
  C  C332  1  0.37898000  0.11871000  0.41980000  1
  C  C333  1  0.12102000  0.11871000  0.91980000  1
  C  C334  1  0.33100000  0.11865000  0.48364000  1
  C  C335  1  0.16900000  0.11865000  0.98364000  1
  C  C336  1  0.35910000  0.11809000  0.35297000  1
  C  C337  1  0.14090000  0.11809000  0.85297000  1
  C  C338  1  0.44890000  0.08397000  0.65306000  1
  C  C339  1  0.05110000  0.08397000  0.15306000  1
  C  C340  1  0.98400000  0.07965000  0.16789000  1
  C  C341  1  0.51600000  0.07965000  0.66789000  1
  C  C342  1  0.41950000  0.07507000  0.41129000  1
  C  C343  1  0.08050000  0.07507000  0.91129000  1
  C  C344  1  0.39898000  0.07411000  0.34702000  1
  C  C345  1  0.10102000  0.07411000  0.84702000  1
  C  C346  1  0.43034000  0.05231000  0.37488000  1
  C  C347  1  0.06966000  0.05231000  0.87488000  1
  C  C348  1  0.42020000  0.04479000  0.62974000  1
  C  C349  1  0.07980000  0.04479000  0.12974000  1
  C  C350  1  0.94400000  0.03575000  0.15867000  1
  C  C351  1  0.55600000  0.03575000  0.65867000  1
  C  C352  1  0.47220000  0.00436000  0.36547000  1
  C  C353  1  0.02780000  0.00436000  0.86547000  1
  C  C354  1  0.46000000  0.00118000  0.61994000  1
  C  C355  1  0.04000000  0.00118000  0.11994000  1
  N  N356  1  0.94970000  0.94854000  0.05866000  1
  N  N357  1  0.55030000  0.94854000  0.55866000  1
  N  N358  1  0.27700000  0.53913000  0.30815000  1
  N  N359  1  0.22300000  0.53913000  0.80815000  1
  N  N360  1  0.77700000  0.46087000  0.19185000  1
  N  N361  1  0.72300000  0.46087000  0.69185000  1
  N  N362  1  0.44970000  0.05146000  0.44134000  1
  N  N363  1  0.05030000  0.05146000  0.94134000  1
  O  O364  1  0.84793000  0.86591000  0.85297000  1
  O  O365  1  0.65207000  0.86591000  0.35297000  1
  O  O366  1  0.93640000  0.83409000  0.81530000  1
  O  O367  1  0.56360000  0.83409000  0.31530000  1
  O  O368  1  0.75488000  0.81642000  0.30075000  1
  O  O369  1  0.74512000  0.81642000  0.80075000  1
  O  O370  1  0.79366000  0.81395000  0.90824000  1
  O  O371  1  0.70634000  0.81395000  0.40824000  1
  O  O372  1  0.83335000  0.78198000  0.76399000  1
  O  O373  1  0.66666667  0.78198000  0.26399000  1
  O  O374  1  0.80742000  0.76343000  0.35516000  1
  O  O375  1  0.69258000  0.76343000  0.85516000  1
  O  O376  1  0.84475000  0.75836000  0.83961000  1
  O  O377  1  0.65525000  0.75836000  0.33961000  1
  O  O378  1  0.85702000  0.74736000  0.91760000  1
  O  O379  1  0.64298000  0.74736000  0.41760000  1
  O  O380  1  0.99755000  0.74107000  0.82468000  1
  O  O381  1  0.50245000  0.74107000  0.32468000  1
  O  O382  1  0.96110000  0.69661000  0.86717000  1
  O  O383  1  0.53890000  0.69661000  0.36717000  1
  O  O384  1  0.75712000  0.69497000  0.37106000  1
  O  O385  1  0.74288000  0.69497000  0.87106000  1
  O  O386  1  0.89355000  0.68825000  0.77508000  1
  O  O387  1  0.60645000  0.68825000  0.27508000  1
  O  O388  1  0.84852000  0.65116000  0.82055000  1
  O  O389  1  0.65148000  0.65116000  0.32055000  1
  O  O390  1  0.34852000  0.34884000  0.67945000  1
  O  O391  1  0.15148000  0.34884000  0.17945000  1
  O  O392  1  0.39355000  0.31175000  0.72492000  1
  O  O393  1  0.10645000  0.31175000  0.22492000  1
  O  O394  1  0.25712000  0.30503000  0.12894000  1
  O  O395  1  0.24288000  0.30503000  0.62894000  1
  O  O396  1  0.46110000  0.30339000  0.63283000  1
  O  O397  1  0.03890000  0.30339000  0.13283000  1
  O  O398  1  0.49755000  0.25893000  0.67532000  1
  O  O399  1  0.00245000  0.25893000  0.17532000  1
  O  O400  1  0.35702000  0.25264000  0.58240000  1
  O  O401  1  0.14298000  0.25264000  0.08240000  1
  O  O402  1  0.34475000  0.24164000  0.66039000  1
  O  O403  1  0.15525000  0.24164000  0.16039000  1
  O  O404  1  0.30742000  0.23657000  0.14484000  1
  O  O405  1  0.19258000  0.23657000  0.64484000  1
  O  O406  1  0.33333333  0.21802000  0.73601000  1
  O  O407  1  0.16665000  0.21802000  0.23601000  1
  O  O408  1  0.29366000  0.18605000  0.59176000  1
  O  O409  1  0.20634000  0.18605000  0.09176000  1
  O  O410  1  0.25488000  0.18358000  0.19925000  1
  O  O411  1  0.24512000  0.18358000  0.69925000  1
  O  O412  1  0.43640000  0.16591000  0.68470000  1
  O  O413  1  0.06360000  0.16591000  0.18470000  1
  O  O414  1  0.34793000  0.13409000  0.64703000  1
  O  O415  1  0.15207000  0.13409000  0.14703000  1
