# generated using pymatgen
data_AgH8(C4N3)2
_symmetry_space_group_name_H-M   'P 1'
_cell_length_a   10.51970000
_cell_length_b   10.51970000
_cell_length_c   22.84996309
_cell_angle_alpha   76.69169811
_cell_angle_beta   76.69169811
_cell_angle_gamma   60.00000000
_symmetry_Int_Tables_number   1
_chemical_formula_structural   AgH8(C4N3)2
_chemical_formula_sum   'Ag6 H48 C48 N36'
_cell_volume   2111.11751612
_cell_formula_units_Z   6
loop_
 _symmetry_equiv_pos_site_id
 _symmetry_equiv_pos_as_xyz
  1  'x, y, z'
loop_
 _atom_site_type_symbol
 _atom_site_label
 _atom_site_symmetry_multiplicity
 _atom_site_fract_x
 _atom_site_fract_y
 _atom_site_fract_z
 _atom_site_occupancy
  Ag  Ag0  1  0.48919000  0.01081000  0.75000000  1
  Ag  Ag1  1  0.51081000  0.98919000  0.25000000  1
  Ag  Ag2  1  0.01081000  0.75000000  0.75000000  1
  Ag  Ag3  1  0.25000000  0.51081000  0.25000000  1
  Ag  Ag4  1  0.75000000  0.48919000  0.75000000  1
  Ag  Ag5  1  0.98919000  0.25000000  0.25000000  1
  C  C6  1  0.72189000  0.52009000  0.61103000  1
  C  C7  1  0.02009000  0.22189000  0.11103000  1
  C  C8  1  0.35511000  0.61661000  0.49967000  1
  C  C9  1  0.11661000  0.85511000  0.99967000  1
  C  C10  1  0.74153000  0.56213000  0.49661000  1
  C  C11  1  0.06213000  0.24153000  0.99661000  1
  C  C12  1  0.14699000  0.72189000  0.61103000  1
  C  C13  1  0.22189000  0.64699000  0.11103000  1
  C  C14  1  0.19973000  0.74153000  0.49661000  1
  C  C15  1  0.24153000  0.69973000  0.99661000  1
  C  C16  1  0.35301000  0.97991000  0.88897000  1
  C  C17  1  0.47991000  0.85301000  0.38897000  1
  C  C18  1  0.56607000  0.93037000  0.61859000  1
  C  C19  1  0.43037000  0.06607000  0.11859000  1
  C  C20  1  0.30027000  0.93787000  0.00339000  1
  C  C21  1  0.43787000  0.80027000  0.50339000  1
  C  C22  1  0.93037000  0.88497000  0.61859000  1
  C  C23  1  0.38497000  0.43037000  0.11859000  1
  C  C24  1  0.85511000  0.02861000  0.99967000  1
  C  C25  1  0.52861000  0.35511000  0.49967000  1
  C  C26  1  0.06607000  0.38497000  0.11859000  1
  C  C27  1  0.88497000  0.56607000  0.61859000  1
  C  C28  1  0.97139000  0.88339000  0.00033000  1
  C  C29  1  0.38339000  0.47139000  0.50033000  1
  C  C30  1  0.61661000  0.52861000  0.49967000  1
  C  C31  1  0.02861000  0.11661000  0.99967000  1
  C  C32  1  0.93393000  0.61503000  0.88141000  1
  C  C33  1  0.11503000  0.43393000  0.38141000  1
  C  C34  1  0.14489000  0.97139000  0.00033000  1
  C  C35  1  0.47139000  0.64489000  0.50033000  1
  C  C36  1  0.61503000  0.56963000  0.88141000  1
  C  C37  1  0.06963000  0.11503000  0.38141000  1
  C  C38  1  0.69973000  0.06213000  0.99661000  1
  C  C39  1  0.56213000  0.19973000  0.49661000  1
  C  C40  1  0.43393000  0.06963000  0.38141000  1
  C  C41  1  0.56963000  0.93393000  0.88141000  1
  C  C42  1  0.64699000  0.02009000  0.11103000  1
  C  C43  1  0.52009000  0.14699000  0.61103000  1
  C  C44  1  0.80027000  0.25847000  0.50339000  1
  C  C45  1  0.75847000  0.30027000  0.00339000  1
  C  C46  1  0.85301000  0.27811000  0.38897000  1
  C  C47  1  0.77811000  0.35301000  0.88897000  1
  C  C48  1  0.93787000  0.75847000  0.00339000  1
  C  C49  1  0.25847000  0.43787000  0.50339000  1
  C  C50  1  0.64489000  0.38339000  0.50033000  1
  C  C51  1  0.88339000  0.14489000  0.00033000  1
  C  C52  1  0.97991000  0.77811000  0.88897000  1
  C  C53  1  0.27811000  0.47991000  0.38897000  1
  H  H54  1  0.29580000  0.00810000  0.02580000  1
  H  H55  1  0.50810000  0.79580000  0.52580000  1
  H  H56  1  0.67030000  0.29580000  0.02580000  1
  H  H57  1  0.79580000  0.17030000  0.52580000  1
  H  H58  1  0.83950000  0.78410000  0.02550000  1
  H  H59  1  0.28410000  0.33950000  0.52550000  1
  H  H60  1  0.82970000  0.49190000  0.47420000  1
  H  H61  1  0.99190000  0.32970000  0.97420000  1
  H  H62  1  0.23880000  0.64400000  0.61970000  1
  H  H63  1  0.14400000  0.73880000  0.11970000  1
  H  H64  1  0.07890000  0.44970000  0.13530000  1
  H  H65  1  0.94970000  0.57890000  0.63530000  1
  H  H66  1  0.64400000  0.49750000  0.61970000  1
  H  H67  1  0.99750000  0.14400000  0.11970000  1
  H  H68  1  0.44970000  0.33610000  0.13530000  1
  H  H69  1  0.83610000  0.94970000  0.63530000  1
  H  H70  1  0.35090000  0.83950000  0.02550000  1
  H  H71  1  0.33950000  0.85090000  0.52550000  1
  H  H72  1  0.26120000  0.00250000  0.88030000  1
  H  H73  1  0.50250000  0.76120000  0.38030000  1
  H  H74  1  0.14910000  0.71590000  0.47450000  1
  H  H75  1  0.21590000  0.64910000  0.97450000  1
  H  H76  1  0.57890000  0.83610000  0.63530000  1
  H  H77  1  0.33610000  0.07890000  0.13530000  1
  H  H78  1  0.42110000  0.16390000  0.36470000  1
  H  H79  1  0.66390000  0.92110000  0.86470000  1
  H  H80  1  0.85090000  0.28410000  0.52550000  1
  H  H81  1  0.78410000  0.35090000  0.02550000  1
  H  H82  1  0.73880000  0.99750000  0.11970000  1
  H  H83  1  0.49750000  0.23880000  0.61970000  1
  H  H84  1  0.64910000  0.16050000  0.97450000  1
  H  H85  1  0.66050000  0.14910000  0.47450000  1
  H  H86  1  0.16390000  0.05030000  0.36470000  1
  H  H87  1  0.55030000  0.66390000  0.86470000  1
  H  H88  1  0.00250000  0.85600000  0.88030000  1
  H  H89  1  0.35600000  0.50250000  0.38030000  1
  H  H90  1  0.92110000  0.55030000  0.86470000  1
  H  H91  1  0.05030000  0.42110000  0.36470000  1
  H  H92  1  0.76120000  0.35600000  0.38030000  1
  H  H93  1  0.85600000  0.26120000  0.88030000  1
  H  H94  1  0.17030000  0.50810000  0.52580000  1
  H  H95  1  0.00810000  0.67030000  0.02580000  1
  H  H96  1  0.71590000  0.66050000  0.47450000  1
  H  H97  1  0.16050000  0.21590000  0.97450000  1
  H  H98  1  0.32970000  0.70420000  0.97420000  1
  H  H99  1  0.20420000  0.82970000  0.47420000  1
  H  H100  1  0.49190000  0.20420000  0.47420000  1
  H  H101  1  0.70420000  0.99190000  0.97420000  1
  N  N102  1  0.51971000  0.03851000  0.65267000  1
  N  N103  1  0.53851000  0.01971000  0.15267000  1
  N  N104  1  0.94451000  0.72491000  0.94357000  1
  N  N105  1  0.22491000  0.44451000  0.44357000  1
  N  N106  1  0.38701000  0.94451000  0.94357000  1
  N  N107  1  0.44451000  0.88701000  0.44357000  1
  N  N108  1  0.59184000  0.96824000  0.55988000  1
  N  N109  1  0.46824000  0.09184000  0.05988000  1
  N  N110  1  0.03851000  0.78911000  0.65267000  1
  N  N111  1  0.28911000  0.53851000  0.15267000  1
  N  N112  1  0.11299000  0.77509000  0.55643000  1
  N  N113  1  0.27509000  0.61299000  0.05643000  1
  N  N114  1  0.98029000  0.71089000  0.84733000  1
  N  N115  1  0.21089000  0.48029000  0.34733000  1
  N  N116  1  0.96824000  0.88004000  0.55988000  1
  N  N117  1  0.38004000  0.46824000  0.05988000  1
  N  N118  1  0.09184000  0.38004000  0.05988000  1
  N  N119  1  0.88004000  0.59184000  0.55988000  1
  N  N120  1  0.90816000  0.61996000  0.94012000  1
  N  N121  1  0.11996000  0.40816000  0.44012000  1
  N  N122  1  0.61996000  0.53176000  0.94012000  1
  N  N123  1  0.03176000  0.11996000  0.44012000  1
  N  N124  1  0.01971000  0.28911000  0.15267000  1
  N  N125  1  0.78911000  0.51971000  0.65267000  1
  N  N126  1  0.88701000  0.22491000  0.44357000  1
  N  N127  1  0.72491000  0.38701000  0.94357000  1
  N  N128  1  0.71089000  0.46149000  0.84733000  1
  N  N129  1  0.96149000  0.21089000  0.34733000  1
  N  N130  1  0.40816000  0.03176000  0.44012000  1
  N  N131  1  0.53176000  0.90816000  0.94012000  1
  N  N132  1  0.61299000  0.05549000  0.05643000  1
  N  N133  1  0.55549000  0.11299000  0.55643000  1
  N  N134  1  0.77509000  0.55549000  0.55643000  1
  N  N135  1  0.05549000  0.27509000  0.05643000  1
  N  N136  1  0.48029000  0.96149000  0.34733000  1
  N  N137  1  0.46149000  0.98029000  0.84733000  1
