# generated using pymatgen
data_Mn(C2N3)3
_symmetry_space_group_name_H-M   'P 1'
_cell_length_a   10.69400000
_cell_length_b   12.09200000
_cell_length_c   16.10800000
_cell_angle_alpha   90.00000000
_cell_angle_beta   90.00000000
_cell_angle_gamma   90.00000000
_symmetry_Int_Tables_number   1
_chemical_formula_structural   Mn(C2N3)3
_chemical_formula_sum   'Mn4 C24 N36'
_cell_volume   2082.95524758
_cell_formula_units_Z   4
loop_
 _symmetry_equiv_pos_site_id
 _symmetry_equiv_pos_as_xyz
  1  'x, y, z'
loop_
 _atom_site_type_symbol
 _atom_site_label
 _atom_site_symmetry_multiplicity
 _atom_site_fract_x
 _atom_site_fract_y
 _atom_site_fract_z
 _atom_site_occupancy
  Mn  Mn0  1  0.22455000  0.44573000  0.69451000  1
  Mn  Mn1  1  0.27545000  0.55427000  0.19451000  1
  Mn  Mn2  1  0.72455000  0.05427000  0.30549000  1
  Mn  Mn3  1  0.77545000  0.94573000  0.80549000  1
  C  C4  1  0.00130000  0.29330000  0.75790000  1
  C  C5  1  0.06410000  0.35480000  0.17960000  1
  C  C6  1  0.07850000  0.71860000  0.29020000  1
  C  C7  1  0.08290000  0.66000000  0.66100000  1
  C  C8  1  0.14240000  0.55750000  0.87680000  1
  C  C9  1  0.16700000  0.60790000  0.01130000  1
  C  C10  1  0.33300000  0.39210000  0.51130000  1
  C  C11  1  0.35760000  0.44250000  0.37680000  1
  C  C12  1  0.41710000  0.34000000  0.16100000  1
  C  C13  1  0.42150000  0.28140000  0.79020000  1
  C  C14  1  0.43590000  0.64520000  0.67960000  1
  C  C15  1  0.49870000  0.70670000  0.25790000  1
  C  C16  1  0.50130000  0.20670000  0.24210000  1
  C  C17  1  0.56410000  0.14520000  0.82040000  1
  C  C18  1  0.57850000  0.78140000  0.70980000  1
  C  C19  1  0.58290000  0.84000000  0.33900000  1
  C  C20  1  0.64240000  0.94250000  0.12320000  1
  C  C21  1  0.66700000  0.89210000  0.98870000  1
  C  C22  1  0.83300000  0.10790000  0.48870000  1
  C  C23  1  0.85760000  0.05750000  0.62320000  1
  C  C24  1  0.91710000  0.16000000  0.83900000  1
  C  C25  1  0.92150000  0.21860000  0.20980000  1
  C  C26  1  0.93590000  0.85480000  0.32040000  1
  C  C27  1  0.99870000  0.79330000  0.74210000  1
  N  N28  1  0.00190000  0.26680000  0.15920000  1
  N  N29  1  0.06520000  0.33000000  0.70690000  1
  N  N30  1  0.07870000  0.76220000  0.68640000  1
  N  N31  1  0.09730000  0.57320000  0.63490000  1
  N  N32  1  0.10140000  0.60730000  0.94350000  1
  N  N33  1  0.12380000  0.42790000  0.18710000  1
  N  N34  1  0.14840000  0.67060000  0.25660000  1
  N  N35  1  0.16840000  0.51760000  0.81610000  1
  N  N36  1  0.21470000  0.61730000  0.07300000  1
  N  N37  1  0.28530000  0.38270000  0.57300000  1
  N  N38  1  0.33160000  0.48240000  0.31610000  1
  N  N39  1  0.35160000  0.32940000  0.75660000  1
  N  N40  1  0.37620000  0.57210000  0.68710000  1
  N  N41  1  0.39860000  0.39270000  0.44350000  1
  N  N42  1  0.40270000  0.42680000  0.13490000  1
  N  N43  1  0.42130000  0.23780000  0.18640000  1
  N  N44  1  0.43480000  0.67000000  0.20690000  1
  N  N45  1  0.49810000  0.73320000  0.65920000  1
  N  N46  1  0.50190000  0.23320000  0.84080000  1
  N  N47  1  0.56520000  0.17000000  0.29310000  1
  N  N48  1  0.57870000  0.73780000  0.31360000  1
  N  N49  1  0.59730000  0.92680000  0.36510000  1
  N  N50  1  0.60140000  0.89270000  0.05650000  1
  N  N51  1  0.62380000  0.07210000  0.81290000  1
  N  N52  1  0.64840000  0.82940000  0.74340000  1
  N  N53  1  0.66840000  0.98240000  0.18390000  1
  N  N54  1  0.71470000  0.88270000  0.92700000  1
  N  N55  1  0.78530000  0.11730000  0.42700000  1
  N  N56  1  0.83160000  0.01760000  0.68390000  1
  N  N57  1  0.85160000  0.17060000  0.24340000  1
  N  N58  1  0.87620000  0.92790000  0.31290000  1
  N  N59  1  0.89860000  0.10730000  0.55650000  1
  N  N60  1  0.90270000  0.07320000  0.86510000  1
  N  N61  1  0.92130000  0.26220000  0.81360000  1
  N  N62  1  0.93480000  0.83000000  0.79310000  1
  N  N63  1  0.99810000  0.76680000  0.34080000  1
