# generated using pymatgen
data_Cu2H(C2N3)3
_symmetry_space_group_name_H-M   'P 1'
_cell_length_a   9.23340000
_cell_length_b   13.02045964
_cell_length_c   15.94885809
_cell_angle_alpha   70.84310198
_cell_angle_beta   73.17383151
_cell_angle_gamma   69.23273935
_symmetry_Int_Tables_number   1
_chemical_formula_structural   Cu2H(C2N3)3
_chemical_formula_sum   'Cu8 H4 C24 N36'
_cell_volume   1660.71480256
_cell_formula_units_Z   4
loop_
 _symmetry_equiv_pos_site_id
 _symmetry_equiv_pos_as_xyz
  1  'x, y, z'
loop_
 _atom_site_type_symbol
 _atom_site_label
 _atom_site_symmetry_multiplicity
 _atom_site_fract_x
 _atom_site_fract_y
 _atom_site_fract_z
 _atom_site_occupancy
  C  C0  1  0.00320000  0.22220000  0.66380000  1
  C  C1  1  0.11080000  0.72220000  0.16380000  1
  C  C2  1  0.07370000  0.39970000  0.29770000  1
  C  C3  1  0.22890000  0.89970000  0.79770000  1
  C  C4  1  0.90580000  0.78350000  0.72690000  1
  C  C5  1  0.58380000  0.28350000  0.22690000  1
  C  C6  1  0.01700000  0.60670000  0.90070000  1
  C  C7  1  0.47560000  0.10670000  0.40070000  1
  C  C8  1  0.01990000  0.66970000  0.73090000  1
  C  C9  1  0.57950000  0.16970000  0.23090000  1
  C  C10  1  0.07320000  0.58900000  0.80740000  1
  C  C11  1  0.53040000  0.08900000  0.30740000  1
  C  C12  1  0.07500000  0.63860000  0.64800000  1
  C  C13  1  0.63840000  0.13860000  0.14800000  1
  C  C14  1  0.17390000  0.48500000  0.79880000  1
  C  C15  1  0.54230000  0.98500000  0.29880000  1
  C  C16  1  0.22680000  0.45250000  0.71870000  1
  C  C17  1  0.60200000  0.95250000  0.21870000  1
  C  C18  1  0.17390000  0.53030000  0.64070000  1
  C  C19  1  0.65510000  0.03030000  0.14070000  1
  C  C20  1  0.22200000  0.51000000  0.54840000  1
  C  C21  1  0.71960000  0.01000000  0.04840000  1
  C  C22  1  0.33860000  0.34060000  0.71760000  1
  C  C23  1  0.60320000  0.84060000  0.21760000  1
  Cu  Cu24  1  0.74879000  0.10124000  0.77256000  1
  Cu  Cu25  1  0.37741000  0.60124000  0.27256000  1
  Cu  Cu26  1  0.94321000  0.76951000  0.10291000  1
  Cu  Cu27  1  0.18437000  0.26951000  0.60291000  1
  Cu  Cu28  1  0.04451000  0.85249000  0.85151000  1
  Cu  Cu29  1  0.25149000  0.35249000  0.35151000  1
  Cu  Cu30  1  0.82398000  0.51663000  0.17665000  1
  Cu  Cu31  1  0.48274000  0.01663000  0.67665000  1
  H  H32  1  0.04470000  0.69190000  0.59610000  1
  H  H33  1  0.66730000  0.19190000  0.09610000  1
  H  H34  1  0.20870000  0.43330000  0.85010000  1
  H  H35  1  0.50790000  0.93330000  0.35010000  1
  N  N36  1  0.84500000  0.92500000  0.02680000  1
  N  N37  1  0.20320000  0.42500000  0.52680000  1
  N  N38  1  0.75940000  0.04170000  0.90670000  1
  N  N39  1  0.29220000  0.54170000  0.40670000  1
  N  N40  1  0.52810000  0.19480000  0.74960000  1
  N  N41  1  0.52750000  0.69480000  0.24960000  1
  N  N42  1  0.72400000  0.76300000  0.18060000  1
  N  N43  1  0.33240000  0.26300000  0.68060000  1
  N  N44  1  0.90190000  0.18240000  0.70320000  1
  N  N45  1  0.21250000  0.68240000  0.20320000  1
  N  N46  1  0.86640000  0.94830000  0.93550000  1
  N  N47  1  0.24980000  0.44830000  0.43550000  1
  N  N48  1  0.67360000  0.67210000  0.20070000  1
  N  N49  1  0.45360000  0.17210000  0.70070000  1
  N  N50  1  0.97330000  0.43790000  0.25750000  1
  N  N51  1  0.33130000  0.93790000  0.75750000  1
  N  N52  1  0.78430000  0.95050000  0.74050000  1
  N  N53  1  0.52470000  0.45050000  0.24050000  1
  N  N54  1  0.96230000  0.67210000  0.01630000  1
  N  N55  1  0.34930000  0.17210000  0.51630000  1
  N  N56  1  0.90610000  0.85990000  0.76570000  1
  N  N57  1  0.46830000  0.35990000  0.26570000  1
  N  N58  1  0.01650000  0.69450000  0.92650000  1
  N  N59  1  0.36250000  0.19450000  0.42650000  1
  N  N60  1  0.71270000  0.92810000  0.69150000  1
  N  N61  1  0.66770000  0.42810000  0.19150000  1
  N  N62  1  0.93130000  0.57270000  0.04210000  1
  N  N63  1  0.45390000  0.07270000  0.54210000  1
  N  N64  1  0.78870000  0.82170000  0.68030000  1
  N  N65  1  0.70930000  0.32170000  0.18030000  1
  N  N66  1  0.96560000  0.53030000  0.97110000  1
  N  N67  1  0.53300000  0.03030000  0.47110000  1
  N  N68  1  0.27340000  0.58540000  0.47680000  1
  N  N69  1  0.66440000  0.08540000  0.97680000  1
  N  N70  1  0.45910000  0.29830000  0.76070000  1
  N  N71  1  0.48190000  0.79830000  0.26070000  1
