# generated using pymatgen
data_Ga2Co4(PO4)5
_symmetry_space_group_name_H-M   'P 1'
_cell_length_a   12.92280000
_cell_length_b   14.19780000
_cell_length_c   14.22620000
_cell_angle_alpha   90.00000000
_cell_angle_beta   90.00000000
_cell_angle_gamma   92.79500000
_symmetry_Int_Tables_number   1
_chemical_formula_structural   Ga2Co4(PO4)5
_chemical_formula_sum   'Ga8 Co16 P20 O80'
_cell_volume   2607.05168574
_cell_formula_units_Z   4
loop_
 _symmetry_equiv_pos_site_id
 _symmetry_equiv_pos_as_xyz
  1  'x, y, z'
loop_
 _atom_site_type_symbol
 _atom_site_label
 _atom_site_symmetry_multiplicity
 _atom_site_fract_x
 _atom_site_fract_y
 _atom_site_fract_z
 _atom_site_occupancy
  Ga  Ga0  1  0.89110000  0.39670000  0.73350000  1
  Ga  Ga1  1  0.80590000  0.72630000  0.25880000  1
  Ga  Ga2  1  0.69410000  0.77370000  0.75880000  1
  Ga  Ga3  1  0.60890000  0.10330000  0.23350000  1
  Ga  Ga4  1  0.39110000  0.89670000  0.76650000  1
  Ga  Ga5  1  0.30590000  0.22630000  0.24120000  1
  Ga  Ga6  1  0.19410000  0.27370000  0.74120000  1
  Ga  Ga7  1  0.10890000  0.60330000  0.26650000  1
  Co  Co8  1  0.99480000  0.72850000  0.87370000  1
  Co  Co9  1  0.98690000  0.74240000  0.62560000  1
  Co  Co10  1  0.90750000  0.12830000  0.76240000  1
  Co  Co11  1  0.87930000  0.38400000  0.74320000  1
  Co  Co12  1  0.62070000  0.11600000  0.24320000  1
  Co  Co13  1  0.59250000  0.37170000  0.26240000  1
  Co  Co14  1  0.51310000  0.75760000  0.12560000  1
  Co  Co15  1  0.50520000  0.77150000  0.37370000  1
  Co  Co16  1  0.49480000  0.22850000  0.62630000  1
  Co  Co17  1  0.48690000  0.24240000  0.87440000  1
  Co  Co18  1  0.40750000  0.62830000  0.73760000  1
  Co  Co19  1  0.37930000  0.88400000  0.75680000  1
  Co  Co20  1  0.12070000  0.61600000  0.25680000  1
  Co  Co21  1  0.09250000  0.87170000  0.23760000  1
  Co  Co22  1  0.01310000  0.25760000  0.37440000  1
  Co  Co23  1  0.00520000  0.27150000  0.12630000  1
  P  P24  1  0.99010000  0.74460000  0.39360000  1
  P  P25  1  0.98750000  0.71360000  0.10670000  1
  P  P26  1  0.90170000  0.89650000  0.76530000  1
  P  P27  1  0.84670000  0.60780000  0.74720000  1
  P  P28  1  0.80610000  0.27530000  0.25380000  1
  P  P29  1  0.69390000  0.22470000  0.75380000  1
  P  P30  1  0.65330000  0.89220000  0.24720000  1
  P  P31  1  0.59830000  0.60350000  0.26530000  1
  P  P32  1  0.51250000  0.78640000  0.60670000  1
  P  P33  1  0.50990000  0.75540000  0.89360000  1
  P  P34  1  0.49010000  0.24460000  0.10640000  1
  P  P35  1  0.48750000  0.21360000  0.39330000  1
  P  P36  1  0.40170000  0.39650000  0.73470000  1
  P  P37  1  0.34670000  0.10780000  0.75280000  1
  P  P38  1  0.30610000  0.77530000  0.24620000  1
  P  P39  1  0.19390000  0.72470000  0.74620000  1
  P  P40  1  0.15330000  0.39220000  0.25280000  1
  P  P41  1  0.09830000  0.10350000  0.23470000  1
  P  P42  1  0.01250000  0.28640000  0.89330000  1
  P  P43  1  0.00990000  0.25540000  0.60640000  1
  O  O44  1  0.99830000  0.83690000  0.33700000  1
  O  O45  1  0.99130000  0.77090000  0.49590000  1
  O  O46  1  0.98430000  0.69390000  0.00230000  1
  O  O47  1  0.97850000  0.37530000  0.84400000  1
  O  O48  1  0.97020000  0.86200000  0.68650000  1
  O  O49  1  0.93940000  0.61750000  0.81300000  1
  O  O50  1  0.93730000  0.20230000  0.87320000  1
  O  O51  1  0.93250000  0.99910000  0.78450000  1
  O  O52  1  0.91980000  0.83940000  0.85440000  1
  O  O53  1  0.91880000  0.31450000  0.62990000  1
  O  O54  1  0.88790000  0.69170000  0.36740000  1
  O  O55  1  0.88350000  0.30450000  0.33120000  1
  O  O56  1  0.87810000  0.73320000  0.13830000  1
  O  O57  1  0.87460000  0.65290000  0.65200000  1
  O  O58  1  0.86170000  0.26210000  0.16050000  1
  O  O59  1  0.81350000  0.50440000  0.73510000  1
  O  O60  1  0.78790000  0.88390000  0.73960000  1
  O  O61  1  0.76370000  0.14130000  0.74070000  1
  O  O62  1  0.75450000  0.31400000  0.78170000  1
  O  O63  1  0.75410000  0.65710000  0.78860000  1
  O  O64  1  0.74590000  0.84290000  0.28860000  1
  O  O65  1  0.74550000  0.18600000  0.28170000  1
  O  O66  1  0.73630000  0.35870000  0.24070000  1
  O  O67  1  0.71210000  0.61610000  0.23960000  1
  O  O68  1  0.68650000  0.99560000  0.23510000  1
  O  O69  1  0.63830000  0.23790000  0.66050000  1
  O  O70  1  0.62540000  0.84710000  0.15200000  1
  O  O71  1  0.62190000  0.76680000  0.63830000  1
  O  O72  1  0.61650000  0.19550000  0.83120000  1
  O  O73  1  0.61210000  0.80830000  0.86740000  1
  O  O74  1  0.58120000  0.18550000  0.12990000  1
  O  O75  1  0.58020000  0.66060000  0.35440000  1
  O  O76  1  0.56750000  0.50090000  0.28450000  1
  O  O77  1  0.56270000  0.29770000  0.37320000  1
  O  O78  1  0.56060000  0.88250000  0.31300000  1
  O  O79  1  0.52980000  0.63800000  0.18650000  1
  O  O80  1  0.52150000  0.12470000  0.34400000  1
  O  O81  1  0.51570000  0.80610000  0.50230000  1
  O  O82  1  0.50870000  0.72910000  0.99590000  1
  O  O83  1  0.50170000  0.66310000  0.83700000  1
  O  O84  1  0.49830000  0.33690000  0.16300000  1
  O  O85  1  0.49130000  0.27090000  0.00410000  1
  O  O86  1  0.48430000  0.19390000  0.49770000  1
  O  O87  1  0.47850000  0.87530000  0.65600000  1
  O  O88  1  0.47020000  0.36200000  0.81350000  1
  O  O89  1  0.43940000  0.11750000  0.68700000  1
  O  O90  1  0.43730000  0.70230000  0.62680000  1
  O  O91  1  0.43250000  0.49910000  0.71550000  1
  O  O92  1  0.41980000  0.33940000  0.64560000  1
  O  O93  1  0.41880000  0.81450000  0.87010000  1
  O  O94  1  0.38790000  0.19170000  0.13260000  1
  O  O95  1  0.38350000  0.80450000  0.16880000  1
  O  O96  1  0.37810000  0.23320000  0.36170000  1
  O  O97  1  0.37460000  0.15290000  0.84800000  1
  O  O98  1  0.36170000  0.76210000  0.33950000  1
  O  O99  1  0.31350000  0.00440000  0.76490000  1
  O  O100  1  0.28790000  0.38390000  0.76040000  1
  O  O101  1  0.26370000  0.64130000  0.75930000  1
  O  O102  1  0.25450000  0.81400000  0.71830000  1
  O  O103  1  0.25410000  0.15710000  0.71140000  1
  O  O104  1  0.24590000  0.34290000  0.21140000  1
  O  O105  1  0.24550000  0.68600000  0.21830000  1
  O  O106  1  0.23630000  0.85870000  0.25930000  1
  O  O107  1  0.21210000  0.11610000  0.26040000  1
  O  O108  1  0.18650000  0.49560000  0.26490000  1
  O  O109  1  0.13830000  0.73790000  0.83950000  1
  O  O110  1  0.12540000  0.34710000  0.34800000  1
  O  O111  1  0.12190000  0.26680000  0.86170000  1
  O  O112  1  0.11650000  0.69550000  0.66880000  1
  O  O113  1  0.11210000  0.30830000  0.63260000  1
  O  O114  1  0.08120000  0.68550000  0.37010000  1
  O  O115  1  0.08020000  0.16060000  0.14560000  1
  O  O116  1  0.06750000  0.00090000  0.21550000  1
  O  O117  1  0.06270000  0.79770000  0.12680000  1
  O  O118  1  0.06060000  0.38250000  0.18700000  1
  O  O119  1  0.02980000  0.13800000  0.31350000  1
  O  O120  1  0.02150000  0.62470000  0.15600000  1
  O  O121  1  0.01570000  0.30610000  0.99770000  1
  O  O122  1  0.00870000  0.22910000  0.50410000  1
  O  O123  1  0.00170000  0.16310000  0.66300000  1
