# generated using pymatgen
data_ZnH16C16(NO2)2
_symmetry_space_group_name_H-M   'P 1'
_cell_length_a   10.89500000
_cell_length_b   13.05200000
_cell_length_c   13.53600000
_cell_angle_alpha   90.00000000
_cell_angle_beta   95.74000000
_cell_angle_gamma   90.00000000
_symmetry_Int_Tables_number   1
_chemical_formula_structural   ZnH16C16(NO2)2
_chemical_formula_sum   'Zn4 H64 C64 N8 O16'
_cell_volume   1915.18887669
_cell_formula_units_Z   4
loop_
 _symmetry_equiv_pos_site_id
 _symmetry_equiv_pos_as_xyz
  1  'x, y, z'
loop_
 _atom_site_type_symbol
 _atom_site_label
 _atom_site_symmetry_multiplicity
 _atom_site_fract_x
 _atom_site_fract_y
 _atom_site_fract_z
 _atom_site_occupancy
  Zn  Zn0  1  0.20101000  0.38025000  0.67266000  1
  Zn  Zn1  1  0.29899000  0.88025000  0.82734000  1
  Zn  Zn2  1  0.70101000  0.11975000  0.17266000  1
  Zn  Zn3  1  0.79899000  0.61975000  0.32734000  1
  H  H4  1  0.03060000  0.26850000  0.34670000  1
  H  H5  1  0.03180000  0.12460000  0.46040000  1
  H  H6  1  0.04250000  0.78640000  0.94140000  1
  H  H7  1  0.04860000  0.52670000  0.32750000  1
  H  H8  1  0.06200000  0.19940000  0.14910000  1
  H  H9  1  0.07660000  0.81940000  0.48820000  1
  H  H10  1  0.07740000  0.34210000  0.99110000  1
  H  H11  1  0.07800000  0.20290000  0.88370000  1
  H  H12  1  0.08990000  0.69020000  0.60760000  1
  H  H13  1  0.12900000  0.59200000  0.97160000  1
  H  H14  1  0.15940000  0.41750000  0.23690000  1
  H  H15  1  0.16020000  0.04170000  0.13370000  1
  H  H16  1  0.17140000  0.07790000  0.79860000  1
  H  H17  1  0.18180000  0.32800000  0.08220000  1
  H  H18  1  0.23550000  0.48560000  0.87470000  1
  H  H19  1  0.24860000  0.41950000  0.45720000  1
  H  H20  1  0.25140000  0.91950000  0.04280000  1
  H  H21  1  0.26450000  0.98560000  0.62530000  1
  H  H22  1  0.31820000  0.82800000  0.41780000  1
  H  H23  1  0.32860000  0.57790000  0.70140000  1
  H  H24  1  0.33980000  0.54170000  0.36630000  1
  H  H25  1  0.34060000  0.91750000  0.26310000  1
  H  H26  1  0.37100000  0.09200000  0.52840000  1
  H  H27  1  0.41010000  0.19020000  0.89240000  1
  H  H28  1  0.42200000  0.70290000  0.61630000  1
  H  H29  1  0.42260000  0.84210000  0.50890000  1
  H  H30  1  0.42340000  0.31940000  0.01180000  1
  H  H31  1  0.43800000  0.69940000  0.35090000  1
  H  H32  1  0.45140000  0.02670000  0.17250000  1
  H  H33  1  0.45750000  0.28640000  0.55860000  1
  H  H34  1  0.46820000  0.62460000  0.03960000  1
  H  H35  1  0.46940000  0.76850000  0.15330000  1
  H  H36  1  0.53060000  0.23150000  0.84670000  1
  H  H37  1  0.53180000  0.37540000  0.96040000  1
  H  H38  1  0.54250000  0.71360000  0.44140000  1
  H  H39  1  0.54860000  0.97330000  0.82750000  1
  H  H40  1  0.56200000  0.30060000  0.64910000  1
  H  H41  1  0.57660000  0.68060000  0.98820000  1
  H  H42  1  0.57740000  0.15790000  0.49110000  1
  H  H43  1  0.57800000  0.29710000  0.38370000  1
  H  H44  1  0.58990000  0.80980000  0.10760000  1
  H  H45  1  0.62900000  0.90800000  0.47160000  1
  H  H46  1  0.65940000  0.08250000  0.73690000  1
  H  H47  1  0.66020000  0.45830000  0.63370000  1
  H  H48  1  0.67140000  0.42210000  0.29860000  1
  H  H49  1  0.68180000  0.17200000  0.58220000  1
  H  H50  1  0.73550000  0.01440000  0.37470000  1
  H  H51  1  0.74860000  0.08050000  0.95720000  1
  H  H52  1  0.75140000  0.58050000  0.54280000  1
  H  H53  1  0.76450000  0.51440000  0.12530000  1
  H  H54  1  0.81820000  0.67200000  0.91780000  1
  H  H55  1  0.82860000  0.92210000  0.20140000  1
  H  H56  1  0.83980000  0.95830000  0.86630000  1
  H  H57  1  0.84060000  0.58250000  0.76310000  1
  H  H58  1  0.87100000  0.40800000  0.02840000  1
  H  H59  1  0.91010000  0.30980000  0.39240000  1
  H  H60  1  0.92200000  0.79710000  0.11630000  1
  H  H61  1  0.92260000  0.65790000  0.00890000  1
  H  H62  1  0.92340000  0.18060000  0.51180000  1
  H  H63  1  0.93800000  0.80060000  0.85090000  1
  H  H64  1  0.95140000  0.47330000  0.67250000  1
  H  H65  1  0.95750000  0.21360000  0.05860000  1
  H  H66  1  0.96820000  0.87540000  0.53960000  1
  H  H67  1  0.96940000  0.73150000  0.65330000  1
  C  C68  1  0.00410000  0.80787000  0.52553000  1
  C  C69  1  0.01100000  0.50106000  0.26607000  1
  C  C70  1  0.02650000  0.39935000  0.12193000  1
  C  C71  1  0.04390000  0.75288000  0.62227000  1
  C  C72  1  0.04750000  0.21642000  0.07765000  1
  C  C73  1  0.07790000  0.43656000  0.21223000  1
  C  C74  1  0.08970000  0.25587000  0.53526000  1
  C  C75  1  0.09080000  0.56940000  0.90928000  1
  C  C76  1  0.09190000  0.32414000  0.06230000  1
  C  C77  1  0.10920000  0.13674000  0.01947000  1
  C  C78  1  0.11360000  0.14511000  0.91837000  1
  C  C79  1  0.12340000  0.81755000  0.69480000  1
  C  C80  1  0.15380000  0.50553000  0.85139000  1
  C  C81  1  0.16150000  0.05091000  0.06423000  1
  C  C82  1  0.16920000  0.07013000  0.86815000  1
  C  C83  1  0.21580000  0.97817000  0.00963000  1
  C  C84  1  0.28420000  0.47817000  0.49037000  1
  C  C85  1  0.33080000  0.57013000  0.63185000  1
  C  C86  1  0.33850000  0.55091000  0.43577000  1
  C  C87  1  0.34620000  0.00553000  0.64861000  1
  C  C88  1  0.37660000  0.31755000  0.80520000  1
  C  C89  1  0.38640000  0.64511000  0.58163000  1
  C  C90  1  0.39080000  0.63674000  0.48053000  1
  C  C91  1  0.40810000  0.82414000  0.43770000  1
  C  C92  1  0.40920000  0.06940000  0.59072000  1
  C  C93  1  0.41030000  0.75587000  0.96474000  1
  C  C94  1  0.42210000  0.93656000  0.28777000  1
  C  C95  1  0.45250000  0.71642000  0.42235000  1
  C  C96  1  0.45610000  0.25288000  0.87773000  1
  C  C97  1  0.47350000  0.89935000  0.37807000  1
  C  C98  1  0.48900000  0.00106000  0.23393000  1
  C  C99  1  0.49590000  0.30787000  0.97447000  1
  C  C100  1  0.50410000  0.69213000  0.02553000  1
  C  C101  1  0.51100000  0.99894000  0.76607000  1
  C  C102  1  0.52650000  0.10065000  0.62193000  1
  C  C103  1  0.54390000  0.74712000  0.12227000  1
  C  C104  1  0.54750000  0.28358000  0.57765000  1
  C  C105  1  0.57790000  0.06344000  0.71223000  1
  C  C106  1  0.58970000  0.24413000  0.03526000  1
  C  C107  1  0.59080000  0.93060000  0.40928000  1
  C  C108  1  0.59190000  0.17586000  0.56230000  1
  C  C109  1  0.60920000  0.36326000  0.51947000  1
  C  C110  1  0.61360000  0.35489000  0.41837000  1
  C  C111  1  0.62340000  0.68245000  0.19480000  1
  C  C112  1  0.65380000  0.99447000  0.35139000  1
  C  C113  1  0.66150000  0.44909000  0.56423000  1
  C  C114  1  0.66920000  0.42987000  0.36815000  1
  C  C115  1  0.71580000  0.52183000  0.50963000  1
  C  C116  1  0.78420000  0.02183000  0.99037000  1
  C  C117  1  0.83080000  0.92987000  0.13185000  1
  C  C118  1  0.83850000  0.94909000  0.93577000  1
  C  C119  1  0.84620000  0.49447000  0.14861000  1
  C  C120  1  0.87660000  0.18245000  0.30520000  1
  C  C121  1  0.88640000  0.85489000  0.08163000  1
  C  C122  1  0.89080000  0.86326000  0.98053000  1
  C  C123  1  0.90810000  0.67586000  0.93770000  1
  C  C124  1  0.90920000  0.43060000  0.09072000  1
  C  C125  1  0.91030000  0.74413000  0.46474000  1
  C  C126  1  0.92210000  0.56344000  0.78777000  1
  C  C127  1  0.95250000  0.78358000  0.92235000  1
  C  C128  1  0.95610000  0.24712000  0.37773000  1
  C  C129  1  0.97350000  0.60065000  0.87807000  1
  C  C130  1  0.98900000  0.49894000  0.73393000  1
  C  C131  1  0.99590000  0.19213000  0.47447000  1
  N  N132  1  0.10439000  0.47042000  0.76353000  1
  N  N133  1  0.22054000  0.98666000  0.91142000  1
  N  N134  1  0.27946000  0.48666000  0.58858000  1
  N  N135  1  0.39561000  0.97042000  0.73647000  1
  N  N136  1  0.60439000  0.02958000  0.26353000  1
  N  N137  1  0.72054000  0.51334000  0.41142000  1
  N  N138  1  0.77946000  0.01334000  0.08858000  1
  N  N139  1  0.89561000  0.52958000  0.23647000  1
  O  O140  1  0.05348000  0.31079000  0.60485000  1
  O  O141  1  0.10035000  0.91014000  0.70400000  1
  O  O142  1  0.19802000  0.25686000  0.51614000  1
  O  O143  1  0.21267000  0.77399000  0.74516000  1
  O  O144  1  0.28733000  0.27399000  0.75484000  1
  O  O145  1  0.30198000  0.75686000  0.98386000  1
  O  O146  1  0.39965000  0.41014000  0.79600000  1
  O  O147  1  0.44652000  0.81079000  0.89515000  1
  O  O148  1  0.55348000  0.18921000  0.10485000  1
  O  O149  1  0.60035000  0.58986000  0.20400000  1
  O  O150  1  0.69802000  0.24314000  0.01614000  1
  O  O151  1  0.71267000  0.72601000  0.24516000  1
  O  O152  1  0.78733000  0.22601000  0.25484000  1
  O  O153  1  0.80198000  0.74314000  0.48386000  1
  O  O154  1  0.89965000  0.08986000  0.29600000  1
  O  O155  1  0.94652000  0.68921000  0.39515000  1
