# generated using pymatgen
data_Co4H39C63SN12O10F3
_symmetry_space_group_name_H-M   'P 1'
_cell_length_a   23.77730000
_cell_length_b   23.77730000
_cell_length_c   23.77730000
_cell_angle_alpha   90.00000000
_cell_angle_beta   90.00000000
_cell_angle_gamma   90.00000000
_symmetry_Int_Tables_number   1
_chemical_formula_structural   Co4H39C63SN12O10F3
_chemical_formula_sum   'Co16 H156 C252 S4 N48 O40 F12'
_cell_volume   13442.73421601
_cell_formula_units_Z   4
loop_
 _symmetry_equiv_pos_site_id
 _symmetry_equiv_pos_as_xyz
  1  'x, y, z'
loop_
 _atom_site_type_symbol
 _atom_site_label
 _atom_site_symmetry_multiplicity
 _atom_site_fract_x
 _atom_site_fract_y
 _atom_site_fract_z
 _atom_site_occupancy
  Co  Co0  1  0.00660000  0.55986000  0.86587000  1
  Co  Co1  1  0.01127000  0.51127000  0.98873000  1
  Co  Co2  1  0.05986000  0.63413000  0.99340000  1
  Co  Co3  1  0.13413000  0.50660000  0.94014000  1
  Co  Co4  1  0.36587000  0.49340000  0.44014000  1
  Co  Co5  1  0.44014000  0.36587000  0.49340000  1
  Co  Co6  1  0.48873000  0.48873000  0.48873000  1
  Co  Co7  1  0.49340000  0.44014000  0.36587000  1
  Co  Co8  1  0.50660000  0.94014000  0.13413000  1
  Co  Co9  1  0.51127000  0.98873000  0.01127000  1
  Co  Co10  1  0.55986000  0.86587000  0.00660000  1
  Co  Co11  1  0.63413000  0.99340000  0.05986000  1
  Co  Co12  1  0.86587000  0.00660000  0.55986000  1
  Co  Co13  1  0.94014000  0.13413000  0.50660000  1
  Co  Co14  1  0.98873000  0.01127000  0.51127000  1
  Co  Co15  1  0.99340000  0.05986000  0.63413000  1
  H  H16  1  0.00800000  0.79740000  0.86770000  1
  H  H17  1  0.01190000  0.92370000  0.79710000  1
  H  H18  1  0.01200000  0.15330000  0.72630000  1
  H  H19  1  0.01800000  0.33960000  0.06710000  1
  H  H20  1  0.02360000  0.17950000  0.35840000  1
  H  H21  1  0.02780000  0.21730000  0.46280000  1
  H  H22  1  0.03720000  0.97220000  0.71730000  1
  H  H23  1  0.03840000  0.25420000  0.10880000  1
  H  H24  1  0.05720000  0.72040000  0.89980000  1
  H  H25  1  0.06470000  0.20050000  0.27250000  1
  H  H26  1  0.06710000  0.01800000  0.33960000  1
  H  H27  1  0.06800000  0.23030000  0.74190000  1
  H  H28  1  0.07450000  0.20400000  0.18060000  1
  H  H29  1  0.07630000  0.29710000  0.48810000  1
  H  H30  1  0.09680000  0.39730000  0.89190000  1
  H  H31  1  0.10020000  0.55720000  0.77960000  1
  H  H32  1  0.10270000  0.10810000  0.59680000  1
  H  H33  1  0.10810000  0.59680000  0.10270000  1
  H  H34  1  0.10870000  0.33890000  0.81630000  1
  H  H35  1  0.10880000  0.03840000  0.25420000  1
  H  H36  1  0.13230000  0.50800000  0.70260000  1
  H  H37  1  0.14160000  0.97640000  0.67950000  1
  H  H38  1  0.15330000  0.72630000  0.01200000  1
  H  H39  1  0.16040000  0.93290000  0.51800000  1
  H  H40  1  0.16110000  0.18370000  0.60870000  1
  H  H41  1  0.17950000  0.35840000  0.02360000  1
  H  H42  1  0.18060000  0.07450000  0.20400000  1
  H  H43  1  0.18370000  0.60870000  0.16110000  1
  H  H44  1  0.20050000  0.27250000  0.06470000  1
  H  H45  1  0.20260000  0.36770000  0.49200000  1
  H  H46  1  0.20290000  0.51190000  0.57630000  1
  H  H47  1  0.20400000  0.18060000  0.07450000  1
  H  H48  1  0.21730000  0.46280000  0.02780000  1
  H  H49  1  0.22040000  0.60020000  0.94280000  1
  H  H50  1  0.22630000  0.48800000  0.84670000  1
  H  H51  1  0.22750000  0.93530000  0.70050000  1
  H  H52  1  0.23030000  0.74190000  0.06800000  1
  H  H53  1  0.24190000  0.43200000  0.76970000  1
  H  H54  1  0.24580000  0.89120000  0.53840000  1
  H  H55  1  0.25420000  0.10880000  0.03840000  1
  H  H56  1  0.25810000  0.56800000  0.26970000  1
  H  H57  1  0.26970000  0.25810000  0.56800000  1
  H  H58  1  0.27250000  0.06470000  0.20050000  1
  H  H59  1  0.27370000  0.51200000  0.34670000  1
  H  H60  1  0.27960000  0.39980000  0.44280000  1
  H  H61  1  0.28270000  0.53720000  0.52780000  1
  H  H62  1  0.29600000  0.81940000  0.57450000  1
  H  H63  1  0.29710000  0.48810000  0.07630000  1
  H  H64  1  0.29740000  0.63230000  0.99200000  1
  H  H65  1  0.29950000  0.72750000  0.56470000  1
  H  H66  1  0.31630000  0.39130000  0.66110000  1
  H  H67  1  0.31940000  0.92550000  0.70400000  1
  H  H68  1  0.32050000  0.64160000  0.52360000  1
  H  H69  1  0.33890000  0.81630000  0.10870000  1
  H  H70  1  0.33960000  0.06710000  0.01800000  1
  H  H71  1  0.34670000  0.27370000  0.51200000  1
  H  H72  1  0.35840000  0.02360000  0.17950000  1
  H  H73  1  0.36770000  0.49200000  0.20260000  1
  H  H74  1  0.39120000  0.96160000  0.75420000  1
  H  H75  1  0.39130000  0.66110000  0.31630000  1
  H  H76  1  0.39190000  0.40320000  0.60270000  1
  H  H77  1  0.39730000  0.89190000  0.09680000  1
  H  H78  1  0.39980000  0.44280000  0.27960000  1
  H  H79  1  0.40320000  0.60270000  0.39190000  1
  H  H80  1  0.42370000  0.70290000  0.98810000  1
  H  H81  1  0.42550000  0.79600000  0.68060000  1
  H  H82  1  0.43200000  0.76970000  0.24190000  1
  H  H83  1  0.43290000  0.98200000  0.83960000  1
  H  H84  1  0.43530000  0.79950000  0.77250000  1
  H  H85  1  0.44280000  0.27960000  0.39980000  1
  H  H86  1  0.46160000  0.74580000  0.60880000  1
  H  H87  1  0.46280000  0.02780000  0.21730000  1
  H  H88  1  0.47220000  0.78270000  0.96280000  1
  H  H89  1  0.47640000  0.82050000  0.85840000  1
  H  H90  1  0.48200000  0.66040000  0.56710000  1
  H  H91  1  0.48800000  0.84670000  0.22630000  1
  H  H92  1  0.48810000  0.07630000  0.29710000  1
  H  H93  1  0.49200000  0.20260000  0.36770000  1
  H  H94  1  0.50800000  0.70260000  0.13230000  1
  H  H95  1  0.51190000  0.57630000  0.20290000  1
  H  H96  1  0.51200000  0.34670000  0.27370000  1
  H  H97  1  0.51800000  0.16040000  0.93290000  1
  H  H98  1  0.52360000  0.32050000  0.64160000  1
  H  H99  1  0.52780000  0.28270000  0.53720000  1
  H  H100  1  0.53720000  0.52780000  0.28270000  1
  H  H101  1  0.53840000  0.24580000  0.89120000  1
  H  H102  1  0.55720000  0.77960000  0.10020000  1
  H  H103  1  0.56470000  0.29950000  0.72750000  1
  H  H104  1  0.56710000  0.48200000  0.66040000  1
  H  H105  1  0.56800000  0.26970000  0.25810000  1
  H  H106  1  0.57450000  0.29600000  0.81940000  1
  H  H107  1  0.57630000  0.20290000  0.51190000  1
  H  H108  1  0.59680000  0.10270000  0.10810000  1
  H  H109  1  0.60020000  0.94280000  0.22040000  1
  H  H110  1  0.60270000  0.39190000  0.40320000  1
  H  H111  1  0.60810000  0.90320000  0.89730000  1
  H  H112  1  0.60870000  0.16110000  0.18370000  1
  H  H113  1  0.60880000  0.46160000  0.74580000  1
  H  H114  1  0.63230000  0.99200000  0.29740000  1
  H  H115  1  0.64160000  0.52360000  0.32050000  1
  H  H116  1  0.65330000  0.77370000  0.98800000  1
  H  H117  1  0.66040000  0.56710000  0.48200000  1
  H  H118  1  0.66110000  0.31630000  0.39130000  1
  H  H119  1  0.67950000  0.14160000  0.97640000  1
  H  H120  1  0.68060000  0.42550000  0.79600000  1
  H  H121  1  0.68370000  0.89130000  0.83890000  1
  H  H122  1  0.70050000  0.22750000  0.93530000  1
  H  H123  1  0.70260000  0.13230000  0.50800000  1
  H  H124  1  0.70290000  0.98810000  0.42370000  1
  H  H125  1  0.70400000  0.31940000  0.92550000  1
  H  H126  1  0.71730000  0.03720000  0.97220000  1
  H  H127  1  0.72040000  0.89980000  0.05720000  1
  H  H128  1  0.72630000  0.01200000  0.15330000  1
  H  H129  1  0.72750000  0.56470000  0.29950000  1
  H  H130  1  0.73030000  0.75810000  0.93200000  1
  H  H131  1  0.74190000  0.06800000  0.23030000  1
  H  H132  1  0.74580000  0.60880000  0.46160000  1
  H  H133  1  0.75420000  0.39120000  0.96160000  1
  H  H134  1  0.75810000  0.93200000  0.73030000  1
  H  H135  1  0.76970000  0.24190000  0.43200000  1
  H  H136  1  0.77250000  0.43530000  0.79950000  1
  H  H137  1  0.77370000  0.98800000  0.65330000  1
  H  H138  1  0.77960000  0.10020000  0.55720000  1
  H  H139  1  0.78270000  0.96280000  0.47220000  1
  H  H140  1  0.79600000  0.68060000  0.42550000  1
  H  H141  1  0.79710000  0.01190000  0.92370000  1
  H  H142  1  0.79740000  0.86770000  0.00800000  1
  H  H143  1  0.79950000  0.77250000  0.43530000  1
  H  H144  1  0.81630000  0.10870000  0.33890000  1
  H  H145  1  0.81940000  0.57450000  0.29600000  1
  H  H146  1  0.82050000  0.85840000  0.47640000  1
  H  H147  1  0.83890000  0.68370000  0.89130000  1
  H  H148  1  0.83960000  0.43290000  0.98200000  1
  H  H149  1  0.84670000  0.22630000  0.48800000  1
  H  H150  1  0.85840000  0.47640000  0.82050000  1
  H  H151  1  0.86770000  0.00800000  0.79740000  1
  H  H152  1  0.89120000  0.53840000  0.24580000  1
  H  H153  1  0.89130000  0.83890000  0.68370000  1
  H  H154  1  0.89190000  0.09680000  0.39730000  1
  H  H155  1  0.89730000  0.60810000  0.90320000  1
  H  H156  1  0.89980000  0.05720000  0.72040000  1
  H  H157  1  0.90320000  0.89730000  0.60810000  1
  H  H158  1  0.92370000  0.79710000  0.01190000  1
  H  H159  1  0.92550000  0.70400000  0.31940000  1
  H  H160  1  0.93200000  0.73030000  0.75810000  1
  H  H161  1  0.93290000  0.51800000  0.16040000  1
  H  H162  1  0.93530000  0.70050000  0.22750000  1
  H  H163  1  0.94280000  0.22040000  0.60020000  1
  H  H164  1  0.96160000  0.75420000  0.39120000  1
  H  H165  1  0.96280000  0.47220000  0.78270000  1
  H  H166  1  0.97220000  0.71730000  0.03720000  1
  H  H167  1  0.97640000  0.67950000  0.14160000  1
  H  H168  1  0.98200000  0.83960000  0.43290000  1
  H  H169  1  0.98800000  0.65330000  0.77370000  1
  H  H170  1  0.98810000  0.42370000  0.70290000  1
  H  H171  1  0.99200000  0.29740000  0.63230000  1
  C  C172  1  0.00020000  0.78230000  0.90300000  1
  C  C173  1  0.00290000  0.98040000  0.73420000  1
  C  C174  1  0.01240000  0.45020000  0.71840000  1
  C  C175  1  0.01502000  0.08451000  0.41442000  1
  C  C176  1  0.01960000  0.23420000  0.49710000  1
  C  C177  1  0.02930000  0.73560000  0.92270000  1
  C  C178  1  0.04008000  0.30532000  0.56365000  1
  C  C179  1  0.04060000  0.15110000  0.33750000  1
  C  C180  1  0.04109000  0.09673000  0.35791000  1
  C  C181  1  0.04221000  0.15970000  0.70226000  1
  C  C182  1  0.04980000  0.28160000  0.51240000  1
  C  C183  1  0.05479000  0.32630000  0.06670000  1
  C  C184  1  0.06365000  0.45992000  0.69468000  1
  C  C185  1  0.06550000  0.16380000  0.28590000  1
  C  C186  1  0.06670000  0.05479000  0.32630000  1
  C  C187  1  0.06710000  0.27470000  0.09190000  1
  C  C188  1  0.07280000  0.35616000  0.58337000  1
  C  C189  1  0.07591000  0.20590000  0.71230000  1
  C  C190  1  0.07730000  0.52930000  0.76440000  1
  C  C191  1  0.08337000  0.42720000  0.64384000  1
  C  C192  1  0.08451000  0.41442000  0.01502000  1
  C  C193  1  0.08558000  0.98498000  0.58451000  1
  C  C194  1  0.09190000  0.06710000  0.27470000  1
  C  C195  1  0.09200000  0.12140000  0.25360000  1
  C  C196  1  0.09560000  0.13310000  0.62600000  1
  C  C197  1  0.09673000  0.35791000  0.04109000  1
  C  C198  1  0.09700000  0.50020000  0.71770000  1
  C  C199  1  0.10610000  0.18360000  0.16960000  1
  C  C200  1  0.12140000  0.25360000  0.09200000  1
  C  C201  1  0.12177000  0.21513000  0.67748000  1
  C  C202  1  0.12210000  0.13660000  0.20078000  1
  C  C203  1  0.12600000  0.40440000  0.86690000  1
  C  C204  1  0.13110000  0.17810000  0.63320000  1
  C  C205  1  0.13310000  0.62600000  0.09560000  1
  C  C206  1  0.13320000  0.36890000  0.82190000  1
  C  C207  1  0.13660000  0.20078000  0.12210000  1
  C  C208  1  0.14209000  0.95891000  0.59673000  1
  C  C209  1  0.14384000  0.41663000  0.57280000  1
  C  C210  1  0.15110000  0.33750000  0.04060000  1
  C  C211  1  0.15970000  0.70226000  0.04221000  1
  C  C212  1  0.16021000  0.26400000  0.68688000  1
  C  C213  1  0.16250000  0.95940000  0.65110000  1
  C  C214  1  0.16380000  0.28590000  0.06550000  1
  C  C215  1  0.16960000  0.10610000  0.18360000  1
  C  C216  1  0.17370000  0.93330000  0.55479000  1
  C  C217  1  0.17748000  0.37823000  0.78487000  1
  C  C218  1  0.17810000  0.63320000  0.13110000  1
  C  C219  1  0.18360000  0.16960000  0.10610000  1
  C  C220  1  0.18688000  0.33979000  0.73600000  1
  C  C221  1  0.19468000  0.43635000  0.54008000  1
  C  C222  1  0.20078000  0.12210000  0.13660000  1
  C  C223  1  0.20226000  0.45779000  0.84030000  1
  C  C224  1  0.20590000  0.71230000  0.07591000  1
  C  C225  1  0.21230000  0.42409000  0.79410000  1
  C  C226  1  0.21410000  0.93450000  0.66380000  1
  C  C227  1  0.21513000  0.67748000  0.12177000  1
  C  C228  1  0.21770000  0.40300000  0.49980000  1
  C  C229  1  0.21840000  0.48760000  0.54980000  1
  C  C230  1  0.22530000  0.90810000  0.56710000  1
  C  C231  1  0.23420000  0.49710000  0.01960000  1
  C  C232  1  0.23560000  0.57730000  0.97070000  1
  C  C233  1  0.23600000  0.31312000  0.66021000  1
  C  C234  1  0.24640000  0.90800000  0.62140000  1
  C  C235  1  0.25360000  0.09200000  0.12140000  1
  C  C236  1  0.26400000  0.68688000  0.16021000  1
  C  C237  1  0.26440000  0.42270000  0.47070000  1
  C  C238  1  0.26580000  0.50290000  0.51960000  1
  C  C239  1  0.27470000  0.09190000  0.06710000  1
  C  C240  1  0.28160000  0.51240000  0.04980000  1
  C  C241  1  0.28230000  0.59700000  0.99980000  1
  C  C242  1  0.28487000  0.32252000  0.62177000  1
  C  C243  1  0.28590000  0.06550000  0.16380000  1
  C  C244  1  0.28770000  0.57591000  0.29410000  1
  C  C245  1  0.29410000  0.28770000  0.57591000  1
  C  C246  1  0.29774000  0.54221000  0.34030000  1
  C  C247  1  0.29922000  0.87790000  0.63660000  1
  C  C248  1  0.30532000  0.56365000  0.04008000  1
  C  C249  1  0.31312000  0.66021000  0.23600000  1
  C  C250  1  0.31640000  0.83040000  0.60610000  1
  C  C251  1  0.32190000  0.36680000  0.63110000  1
  C  C252  1  0.32252000  0.62177000  0.28487000  1
  C  C253  1  0.32630000  0.06670000  0.05479000  1
  C  C254  1  0.33040000  0.89390000  0.68360000  1
  C  C255  1  0.33620000  0.71410000  0.56550000  1
  C  C256  1  0.33750000  0.04060000  0.15110000  1
  C  C257  1  0.33979000  0.73600000  0.18688000  1
  C  C258  1  0.34030000  0.29774000  0.54221000  1
  C  C259  1  0.34890000  0.66250000  0.54060000  1
  C  C260  1  0.35616000  0.58337000  0.07280000  1
  C  C261  1  0.35791000  0.04109000  0.09673000  1
  C  C262  1  0.36340000  0.79922000  0.62210000  1
  C  C263  1  0.36680000  0.63110000  0.32190000  1
  C  C264  1  0.36690000  0.37400000  0.59560000  1
  C  C265  1  0.36890000  0.82190000  0.13320000  1
  C  C266  1  0.37400000  0.59560000  0.36690000  1
  C  C267  1  0.37790000  0.86340000  0.70078000  1
  C  C268  1  0.37823000  0.78487000  0.17748000  1
  C  C269  1  0.37860000  0.74640000  0.59200000  1
  C  C270  1  0.39390000  0.81640000  0.66960000  1
  C  C271  1  0.40300000  0.49980000  0.21770000  1
  C  C272  1  0.40327000  0.64209000  0.54109000  1
  C  C273  1  0.40440000  0.86690000  0.12600000  1
  C  C274  1  0.40800000  0.87860000  0.75360000  1
  C  C275  1  0.40810000  0.93290000  0.77470000  1
  C  C276  1  0.41442000  0.01502000  0.08451000  1
  C  C277  1  0.41549000  0.58558000  0.51502000  1
  C  C278  1  0.41663000  0.57280000  0.14384000  1
  C  C279  1  0.42270000  0.47070000  0.26440000  1
  C  C280  1  0.42409000  0.79410000  0.21230000  1
  C  C281  1  0.42720000  0.64384000  0.08337000  1
  C  C282  1  0.43290000  0.72530000  0.59190000  1
  C  C283  1  0.43330000  0.94521000  0.82630000  1
  C  C284  1  0.43450000  0.83620000  0.78590000  1
  C  C285  1  0.43635000  0.54008000  0.19468000  1
  C  C286  1  0.44521000  0.67370000  0.56670000  1
  C  C287  1  0.45020000  0.71840000  0.01240000  1
  C  C288  1  0.45779000  0.84030000  0.20226000  1
  C  C289  1  0.45891000  0.90327000  0.85791000  1
  C  C290  1  0.45940000  0.84890000  0.83750000  1
  C  C291  1  0.45992000  0.69468000  0.06365000  1
  C  C292  1  0.47070000  0.26440000  0.42270000  1
  C  C293  1  0.48040000  0.76580000  0.99710000  1
  C  C294  1  0.48498000  0.91549000  0.91442000  1
  C  C295  1  0.48760000  0.54980000  0.21840000  1
  C  C296  1  0.49710000  0.01960000  0.23420000  1
  C  C297  1  0.49980000  0.21770000  0.40300000  1
  C  C298  1  0.50020000  0.71770000  0.09700000  1
  C  C299  1  0.50290000  0.51960000  0.26580000  1
  C  C300  1  0.51240000  0.04980000  0.28160000  1
  C  C301  1  0.51502000  0.41549000  0.58558000  1
  C  C302  1  0.51960000  0.26580000  0.50290000  1
  C  C303  1  0.52930000  0.76440000  0.07730000  1
  C  C304  1  0.54008000  0.19468000  0.43635000  1
  C  C305  1  0.54060000  0.34890000  0.66250000  1
  C  C306  1  0.54109000  0.40327000  0.64209000  1
  C  C307  1  0.54221000  0.34030000  0.29774000  1
  C  C308  1  0.54980000  0.21840000  0.48760000  1
  C  C309  1  0.55479000  0.17370000  0.93330000  1
  C  C310  1  0.56365000  0.04008000  0.30532000  1
  C  C311  1  0.56550000  0.33620000  0.71410000  1
  C  C312  1  0.56670000  0.44521000  0.67370000  1
  C  C313  1  0.56710000  0.22530000  0.90810000  1
  C  C314  1  0.57280000  0.14384000  0.41663000  1
  C  C315  1  0.57591000  0.29410000  0.28770000  1
  C  C316  1  0.57730000  0.97070000  0.23560000  1
  C  C317  1  0.58337000  0.07280000  0.35616000  1
  C  C318  1  0.58451000  0.08558000  0.98498000  1
  C  C319  1  0.58558000  0.51502000  0.41549000  1
  C  C320  1  0.59190000  0.43290000  0.72530000  1
  C  C321  1  0.59200000  0.37860000  0.74640000  1
  C  C322  1  0.59560000  0.36690000  0.37400000  1
  C  C323  1  0.59673000  0.14209000  0.95891000  1
  C  C324  1  0.59700000  0.99980000  0.28230000  1
  C  C325  1  0.60610000  0.31640000  0.83040000  1
  C  C326  1  0.62140000  0.24640000  0.90800000  1
  C  C327  1  0.62177000  0.28487000  0.32252000  1
  C  C328  1  0.62210000  0.36340000  0.79922000  1
  C  C329  1  0.62600000  0.09560000  0.13310000  1
  C  C330  1  0.63110000  0.32190000  0.36680000  1
  C  C331  1  0.63310000  0.87400000  0.90440000  1
  C  C332  1  0.63320000  0.13110000  0.17810000  1
  C  C333  1  0.63660000  0.29922000  0.87790000  1
  C  C334  1  0.64209000  0.54109000  0.40327000  1
  C  C335  1  0.64384000  0.08337000  0.42720000  1
  C  C336  1  0.65110000  0.16250000  0.95940000  1
  C  C337  1  0.65970000  0.79774000  0.95779000  1
  C  C338  1  0.66021000  0.23600000  0.31312000  1
  C  C339  1  0.66250000  0.54060000  0.34890000  1
  C  C340  1  0.66380000  0.21410000  0.93450000  1
  C  C341  1  0.66960000  0.39390000  0.81640000  1
  C  C342  1  0.67370000  0.56670000  0.44521000  1
  C  C343  1  0.67748000  0.12177000  0.21513000  1
  C  C344  1  0.67810000  0.86680000  0.86890000  1
  C  C345  1  0.68360000  0.33040000  0.89390000  1
  C  C346  1  0.68688000  0.16021000  0.26400000  1
  C  C347  1  0.69468000  0.06365000  0.45992000  1
  C  C348  1  0.70078000  0.37790000  0.86340000  1
  C  C349  1  0.70226000  0.04221000  0.15970000  1
  C  C350  1  0.70590000  0.78770000  0.92409000  1
  C  C351  1  0.71230000  0.07591000  0.20590000  1
  C  C352  1  0.71410000  0.56550000  0.33620000  1
  C  C353  1  0.71513000  0.82252000  0.87823000  1
  C  C354  1  0.71770000  0.09700000  0.50020000  1
  C  C355  1  0.71840000  0.01240000  0.45020000  1
  C  C356  1  0.72530000  0.59190000  0.43290000  1
  C  C357  1  0.73420000  0.00290000  0.98040000  1
  C  C358  1  0.73560000  0.92270000  0.02930000  1
  C  C359  1  0.73600000  0.18688000  0.33979000  1
  C  C360  1  0.74640000  0.59200000  0.37860000  1
  C  C361  1  0.75360000  0.40800000  0.87860000  1
  C  C362  1  0.76400000  0.81312000  0.83979000  1
  C  C363  1  0.76440000  0.07730000  0.52930000  1
  C  C364  1  0.76580000  0.99710000  0.48040000  1
  C  C365  1  0.77470000  0.40810000  0.93290000  1
  C  C366  1  0.78160000  0.98760000  0.95020000  1
  C  C367  1  0.78230000  0.90300000  0.00020000  1
  C  C368  1  0.78487000  0.17748000  0.37823000  1
  C  C369  1  0.78590000  0.43450000  0.83620000  1
  C  C370  1  0.78770000  0.92409000  0.70590000  1
  C  C371  1  0.79410000  0.21230000  0.42409000  1
  C  C372  1  0.79774000  0.95779000  0.65970000  1
  C  C373  1  0.79922000  0.62210000  0.36340000  1
  C  C374  1  0.80532000  0.93635000  0.95992000  1
  C  C375  1  0.81312000  0.83979000  0.76400000  1
  C  C376  1  0.81640000  0.66960000  0.39390000  1
  C  C377  1  0.82190000  0.13320000  0.36890000  1
  C  C378  1  0.82252000  0.87823000  0.71513000  1
  C  C379  1  0.82630000  0.43330000  0.94521000  1
  C  C380  1  0.83040000  0.60610000  0.31640000  1
  C  C381  1  0.83620000  0.78590000  0.43450000  1
  C  C382  1  0.83750000  0.45940000  0.84890000  1
  C  C383  1  0.83979000  0.76400000  0.81312000  1
  C  C384  1  0.84030000  0.20226000  0.45779000  1
  C  C385  1  0.84890000  0.83750000  0.45940000  1
  C  C386  1  0.85616000  0.91663000  0.92720000  1
  C  C387  1  0.85791000  0.45891000  0.90327000  1
  C  C388  1  0.86340000  0.70078000  0.37790000  1
  C  C389  1  0.86680000  0.86890000  0.67810000  1
  C  C390  1  0.86690000  0.12600000  0.40440000  1
  C  C391  1  0.86890000  0.67810000  0.86680000  1
  C  C392  1  0.87400000  0.90440000  0.63310000  1
  C  C393  1  0.87790000  0.63660000  0.29922000  1
  C  C394  1  0.87823000  0.71513000  0.82252000  1
  C  C395  1  0.87860000  0.75360000  0.40800000  1
  C  C396  1  0.89390000  0.68360000  0.33040000  1
  C  C397  1  0.90300000  0.00020000  0.78230000  1
  C  C398  1  0.90327000  0.85791000  0.45891000  1
  C  C399  1  0.90440000  0.63310000  0.87400000  1
  C  C400  1  0.90800000  0.62140000  0.24640000  1
  C  C401  1  0.90810000  0.56710000  0.22530000  1
  C  C402  1  0.91442000  0.48498000  0.91549000  1
  C  C403  1  0.91549000  0.91442000  0.48498000  1
  C  C404  1  0.91663000  0.92720000  0.85616000  1
  C  C405  1  0.92270000  0.02930000  0.73560000  1
  C  C406  1  0.92409000  0.70590000  0.78770000  1
  C  C407  1  0.92720000  0.85616000  0.91663000  1
  C  C408  1  0.93290000  0.77470000  0.40810000  1
  C  C409  1  0.93330000  0.55479000  0.17370000  1
  C  C410  1  0.93450000  0.66380000  0.21410000  1
  C  C411  1  0.93635000  0.95992000  0.80532000  1
  C  C412  1  0.94521000  0.82630000  0.43330000  1
  C  C413  1  0.95020000  0.78160000  0.98760000  1
  C  C414  1  0.95779000  0.65970000  0.79774000  1
  C  C415  1  0.95891000  0.59673000  0.14209000  1
  C  C416  1  0.95940000  0.65110000  0.16250000  1
  C  C417  1  0.95992000  0.80532000  0.93635000  1
  C  C418  1  0.97070000  0.23560000  0.57730000  1
  C  C419  1  0.98040000  0.73420000  0.00290000  1
  C  C420  1  0.98498000  0.58451000  0.08558000  1
  C  C421  1  0.98760000  0.95020000  0.78160000  1
  C  C422  1  0.99710000  0.48040000  0.76580000  1
  C  C423  1  0.99980000  0.28230000  0.59700000  1
  S  S424  1  0.12508000  0.62508000  0.87492000  1
  S  S425  1  0.37492000  0.37492000  0.37492000  1
  S  S426  1  0.62508000  0.87492000  0.12508000  1
  S  S427  1  0.87492000  0.12508000  0.62508000  1
  N  N428  1  0.02006000  0.71173000  0.97139000  1
  N  N429  1  0.02861000  0.52006000  0.78827000  1
  N  N430  1  0.05060000  0.12347000  0.65980000  1
  N  N431  1  0.05337000  0.38209000  0.62904000  1
  N  N432  1  0.11791000  0.37096000  0.55337000  1
  N  N433  1  0.12347000  0.65980000  0.05060000  1
  N  N434  1  0.12904000  0.44663000  0.61791000  1
  N  N435  1  0.14983000  0.29712000  0.72971000  1
  N  N436  1  0.15980000  0.44940000  0.87653000  1
  N  N437  1  0.20288000  0.27029000  0.64983000  1
  N  N438  1  0.21173000  0.52861000  0.97994000  1
  N  N439  1  0.22971000  0.35017000  0.70288000  1
  N  N440  1  0.27029000  0.64983000  0.20288000  1
  N  N441  1  0.28827000  0.47139000  0.47994000  1
  N  N442  1  0.29712000  0.72971000  0.14983000  1
  N  N443  1  0.34020000  0.55060000  0.37653000  1
  N  N444  1  0.35017000  0.70288000  0.22971000  1
  N  N445  1  0.37096000  0.55337000  0.11791000  1
  N  N446  1  0.37653000  0.34020000  0.55060000  1
  N  N447  1  0.38209000  0.62904000  0.05337000  1
  N  N448  1  0.44663000  0.61791000  0.12904000  1
  N  N449  1  0.44940000  0.87653000  0.15980000  1
  N  N450  1  0.47139000  0.47994000  0.28827000  1
  N  N451  1  0.47994000  0.28827000  0.47139000  1
  N  N452  1  0.52006000  0.78827000  0.02861000  1
  N  N453  1  0.52861000  0.97994000  0.21173000  1
  N  N454  1  0.55060000  0.37653000  0.34020000  1
  N  N455  1  0.55337000  0.11791000  0.37096000  1
  N  N456  1  0.61791000  0.12904000  0.44663000  1
  N  N457  1  0.62347000  0.84020000  0.94940000  1
  N  N458  1  0.62904000  0.05337000  0.38209000  1
  N  N459  1  0.64983000  0.20288000  0.27029000  1
  N  N460  1  0.65980000  0.05060000  0.12347000  1
  N  N461  1  0.70288000  0.22971000  0.35017000  1
  N  N462  1  0.71173000  0.97139000  0.02006000  1
  N  N463  1  0.72971000  0.14983000  0.29712000  1
  N  N464  1  0.77029000  0.85017000  0.79712000  1
  N  N465  1  0.78827000  0.02861000  0.52006000  1
  N  N466  1  0.79712000  0.77029000  0.85017000  1
  N  N467  1  0.84020000  0.94940000  0.62347000  1
  N  N468  1  0.85017000  0.79712000  0.77029000  1
  N  N469  1  0.87096000  0.94663000  0.88209000  1
  N  N470  1  0.87653000  0.15980000  0.44940000  1
  N  N471  1  0.88209000  0.87096000  0.94663000  1
  N  N472  1  0.94663000  0.88209000  0.87096000  1
  N  N473  1  0.94940000  0.62347000  0.84020000  1
  N  N474  1  0.97139000  0.02006000  0.71173000  1
  N  N475  1  0.97994000  0.21173000  0.52861000  1
  O  O476  1  0.00866000  0.62570000  0.06173000  1
  O  O477  1  0.01863000  0.03543000  0.43396000  1
  O  O478  1  0.03543000  0.43396000  0.01863000  1
  O  O479  1  0.06173000  0.00866000  0.62570000  1
  O  O480  1  0.06604000  0.98137000  0.53543000  1
  O  O481  1  0.06759000  0.61959000  0.85001000  1
  O  O482  1  0.11959000  0.64999000  0.93241000  1
  O  O483  1  0.12570000  0.43827000  0.99134000  1
  O  O484  1  0.14999000  0.56759000  0.88041000  1
  O  O485  1  0.16031000  0.66031000  0.83969000  1
  O  O486  1  0.33969000  0.33969000  0.33969000  1
  O  O487  1  0.35001000  0.43241000  0.38041000  1
  O  O488  1  0.37430000  0.56173000  0.49134000  1
  O  O489  1  0.38041000  0.35001000  0.43241000  1
  O  O490  1  0.43241000  0.38041000  0.35001000  1
  O  O491  1  0.43396000  0.01863000  0.03543000  1
  O  O492  1  0.43827000  0.99134000  0.12570000  1
  O  O493  1  0.46457000  0.56604000  0.51863000  1
  O  O494  1  0.48137000  0.96457000  0.93396000  1
  O  O495  1  0.49134000  0.37430000  0.56173000  1
  O  O496  1  0.50866000  0.87430000  0.93827000  1
  O  O497  1  0.51863000  0.46457000  0.56604000  1
  O  O498  1  0.53543000  0.06604000  0.98137000  1
  O  O499  1  0.56173000  0.49134000  0.37430000  1
  O  O500  1  0.56604000  0.51863000  0.46457000  1
  O  O501  1  0.56759000  0.88041000  0.14999000  1
  O  O502  1  0.61959000  0.85001000  0.06759000  1
  O  O503  1  0.62570000  0.06173000  0.00866000  1
  O  O504  1  0.64999000  0.93241000  0.11959000  1
  O  O505  1  0.66031000  0.83969000  0.16031000  1
  O  O506  1  0.83969000  0.16031000  0.66031000  1
  O  O507  1  0.85001000  0.06759000  0.61959000  1
  O  O508  1  0.87430000  0.93827000  0.50866000  1
  O  O509  1  0.88041000  0.14999000  0.56759000  1
  O  O510  1  0.93241000  0.11959000  0.64999000  1
  O  O511  1  0.93396000  0.48137000  0.96457000  1
  O  O512  1  0.93827000  0.50866000  0.87430000  1
  O  O513  1  0.96457000  0.93396000  0.48137000  1
  O  O514  1  0.98137000  0.53543000  0.06604000  1
  O  O515  1  0.99134000  0.12570000  0.43827000  1
  F  F516  1  0.00179000  0.08925000  0.55212000  1
  F  F517  1  0.05212000  0.49821000  0.91075000  1
  F  F518  1  0.08925000  0.55212000  0.00179000  1
  F  F519  1  0.41075000  0.44788000  0.50179000  1
  F  F520  1  0.44788000  0.50179000  0.41075000  1
  F  F521  1  0.49821000  0.91075000  0.05212000  1
  F  F522  1  0.50179000  0.41075000  0.44788000  1
  F  F523  1  0.55212000  0.00179000  0.08925000  1
  F  F524  1  0.58925000  0.94788000  0.99821000  1
  F  F525  1  0.91075000  0.05212000  0.49821000  1
  F  F526  1  0.94788000  0.99821000  0.58925000  1
  F  F527  1  0.99821000  0.58925000  0.94788000  1
