# generated using pymatgen
data_HoZnH7C12(NO2)4
_symmetry_space_group_name_H-M   'P 1'
_cell_length_a   9.17740000
_cell_length_b   12.93680000
_cell_length_c   18.50230000
_cell_angle_alpha   71.95000000
_cell_angle_beta   75.64030000
_cell_angle_gamma   69.22480000
_symmetry_Int_Tables_number   1
_chemical_formula_structural   HoZnH7C12(NO2)4
_chemical_formula_sum   'Ho4 Zn4 H28 C48 N16 O32'
_cell_volume   1929.08816070
_cell_formula_units_Z   4
loop_
 _symmetry_equiv_pos_site_id
 _symmetry_equiv_pos_as_xyz
  1  'x, y, z'
loop_
 _atom_site_type_symbol
 _atom_site_label
 _atom_site_symmetry_multiplicity
 _atom_site_fract_x
 _atom_site_fract_y
 _atom_site_fract_z
 _atom_site_occupancy
  Ho  Ho0  1  0.15286000  0.08834000  0.99486000  1
  Ho  Ho1  1  0.23606000  0.41166000  0.50514000  1
  Ho  Ho2  1  0.76394000  0.58834000  0.49486000  1
  Ho  Ho3  1  0.84714000  0.91166000  0.00514000  1
  Zn  Zn4  1  0.20052000  0.91098000  0.66468000  1
  Zn  Zn5  1  0.22382000  0.41098000  0.16468000  1
  Zn  Zn6  1  0.77618000  0.58902000  0.83532000  1
  Zn  Zn7  1  0.79948000  0.08902000  0.33532000  1
  H  H8  1  0.03870000  0.69710000  0.62890000  1
  H  H9  1  0.07110000  0.58140000  0.69180000  1
  H  H10  1  0.10990000  0.10740000  0.40940000  1
  H  H11  1  0.20130000  0.64340000  0.65900000  1
  H  H12  1  0.24250000  0.04580000  0.35160000  1
  H  H13  1  0.26020000  0.01260000  0.43860000  1
  H  H14  1  0.26640000  0.80700000  0.46460000  1
  H  H15  1  0.28860000  0.51260000  0.93860000  1
  H  H16  1  0.34430000  0.91860000  0.80820000  1
  H  H17  1  0.36010000  0.54580000  0.85160000  1
  H  H18  1  0.36470000  0.80290000  0.87110000  1
  H  H19  1  0.37330000  0.60740000  0.90940000  1
  H  H20  1  0.46200000  0.30700000  0.96460000  1
  H  H21  1  0.49630000  0.14340000  0.15900000  1
  H  H22  1  0.50370000  0.85660000  0.84100000  1
  H  H23  1  0.53800000  0.69300000  0.03540000  1
  H  H24  1  0.62670000  0.39260000  0.09060000  1
  H  H25  1  0.63530000  0.19710000  0.12890000  1
  H  H26  1  0.63990000  0.45420000  0.14840000  1
  H  H27  1  0.65570000  0.08140000  0.19180000  1
  H  H28  1  0.71140000  0.48740000  0.06140000  1
  H  H29  1  0.73360000  0.19300000  0.53540000  1
  H  H30  1  0.73980000  0.98740000  0.56140000  1
  H  H31  1  0.75750000  0.95420000  0.64840000  1
  H  H32  1  0.79870000  0.35660000  0.34100000  1
  H  H33  1  0.89010000  0.89260000  0.59060000  1
  H  H34  1  0.92890000  0.41860000  0.30820000  1
  H  H35  1  0.96130000  0.30290000  0.37110000  1
  C  C36  1  0.00050000  0.94100000  0.81420000  1
  C  C37  1  0.02150000  0.15800000  0.20020000  1
  C  C38  1  0.02560000  0.71780000  0.73460000  1
  C  C39  1  0.06150000  0.64070000  0.07930000  1
  C  C40  1  0.06180000  0.13960000  0.57100000  1
  C  C41  1  0.06750000  0.77900000  0.45720000  1
  C  C42  1  0.08990000  0.65430000  0.67310000  1
  C  C43  1  0.10650000  0.94860000  0.41920000  1
  C  C44  1  0.10780000  0.23210000  0.16150000  1
  C  C45  1  0.11630000  0.65370000  0.48010000  1
  C  C46  1  0.18680000  0.03630000  0.40330000  1
  C  C47  1  0.21850000  0.14070000  0.57930000  1
  C  C48  1  0.22620000  0.23840000  0.09200000  1
  C  C49  1  0.22760000  0.63960000  0.07100000  1
  C  C50  1  0.24430000  0.44100000  0.31420000  1
  C  C51  1  0.25010000  0.84630000  0.01990000  1
  C  C52  1  0.30370000  0.72100000  0.04280000  1
  C  C53  1  0.37360000  0.53630000  0.90330000  1
  C  C54  1  0.37970000  0.34200000  0.29980000  1
  C  C55  1  0.41730000  0.84570000  0.82690000  1
  C  C56  1  0.44340000  0.73840000  0.59200000  1
  C  C57  1  0.47430000  0.55140000  0.08080000  1
  C  C58  1  0.47800000  0.78220000  0.76540000  1
  C  C59  1  0.49860000  0.73210000  0.66150000  1
  C  C60  1  0.50140000  0.26790000  0.33850000  1
  C  C61  1  0.52200000  0.21780000  0.23460000  1
  C  C62  1  0.52570000  0.44860000  0.91920000  1
  C  C63  1  0.55660000  0.26160000  0.40800000  1
  C  C64  1  0.58270000  0.15430000  0.17310000  1
  C  C65  1  0.62030000  0.65800000  0.70020000  1
  C  C66  1  0.62640000  0.46370000  0.09670000  1
  C  C67  1  0.69630000  0.27900000  0.95720000  1
  C  C68  1  0.74990000  0.15370000  0.98010000  1
  C  C69  1  0.75570000  0.55900000  0.68580000  1
  C  C70  1  0.77240000  0.36040000  0.92900000  1
  C  C71  1  0.77380000  0.76160000  0.90800000  1
  C  C72  1  0.78150000  0.85930000  0.42070000  1
  C  C73  1  0.81320000  0.96370000  0.59670000  1
  C  C74  1  0.88370000  0.34630000  0.51990000  1
  C  C75  1  0.89220000  0.76790000  0.83850000  1
  C  C76  1  0.89350000  0.05140000  0.58080000  1
  C  C77  1  0.91010000  0.34570000  0.32690000  1
  C  C78  1  0.93250000  0.22100000  0.54280000  1
  C  C79  1  0.93820000  0.86040000  0.42900000  1
  C  C80  1  0.93850000  0.35930000  0.92070000  1
  C  C81  1  0.97440000  0.28220000  0.26540000  1
  C  C82  1  0.97850000  0.84200000  0.79980000  1
  C  C83  1  0.99950000  0.05900000  0.18580000  1
  N  N84  1  0.03490000  0.03460000  0.59580000  1
  N  N85  1  0.06250000  0.80990000  0.73330000  1
  N  N86  1  0.07785000  0.30980000  0.20390000  1
  N  N87  1  0.17230000  0.83740000  0.45060000  1
  N  N88  1  0.33470000  0.53460000  0.09580000  1
  N  N89  1  0.39430000  0.30990000  0.23330000  1
  N  N90  1  0.40845000  0.80980000  0.70390000  1
  N  N91  1  0.46030000  0.66260000  0.04940000  1
  N  N92  1  0.53970000  0.33740000  0.95060000  1
  N  N93  1  0.59155000  0.19020000  0.29610000  1
  N  N94  1  0.60570000  0.69010000  0.76670000  1
  N  N95  1  0.66530000  0.46540000  0.90420000  1
  N  N96  1  0.82770000  0.16260000  0.54940000  1
  N  N97  1  0.92215000  0.69020000  0.79610000  1
  N  N98  1  0.93750000  0.19010000  0.26670000  1
  N  N99  1  0.96510000  0.96540000  0.40420000  1
  O  O100  1  0.01967000  0.59876000  0.49530000  1
  O  O101  1  0.03030000  0.55250000  0.11890000  1
  O  O102  1  0.03450000  0.27350000  0.95550000  1
  O  O103  1  0.05433000  0.03344000  0.12170000  1
  O  O104  1  0.07728000  0.99654000  0.76150000  1
  O  O105  1  0.11373000  0.90124000  0.00470000  1
  O  O106  1  0.16468000  0.49654000  0.26150000  1
  O  O107  1  0.20947000  0.46656000  0.37830000  1
  O  O108  1  0.26036000  0.60088000  0.48260000  1
  O  O109  1  0.26350000  0.22650000  0.54450000  1
  O  O110  1  0.26739000  0.16332000  0.05390000  1
  O  O111  1  0.28721000  0.31758000  0.07400000  1
  O  O112  1  0.29830000  0.05250000  0.61890000  1
  O  O113  1  0.32121000  0.81758000  0.57400000  1
  O  O114  1  0.34384000  0.89912000  0.01740000  1
  O  O115  1  0.48461000  0.33668000  0.44610000  1
  O  O116  1  0.51539000  0.66332000  0.55390000  1
  O  O117  1  0.65616000  0.10088000  0.98260000  1
  O  O118  1  0.67879000  0.18242000  0.42600000  1
  O  O119  1  0.70170000  0.94750000  0.38110000  1
  O  O120  1  0.71279000  0.68242000  0.92600000  1
  O  O121  1  0.73261000  0.83668000  0.94610000  1
  O  O122  1  0.73650000  0.77350000  0.45550000  1
  O  O123  1  0.73964000  0.39912000  0.51740000  1
  O  O124  1  0.79053000  0.53344000  0.62170000  1
  O  O125  1  0.83532000  0.50346000  0.73850000  1
  O  O126  1  0.88627000  0.09876000  0.99530000  1
  O  O127  1  0.92272000  0.00346000  0.23850000  1
  O  O128  1  0.94567000  0.96656000  0.87830000  1
  O  O129  1  0.96550000  0.72650000  0.04450000  1
  O  O130  1  0.96970000  0.44750000  0.88110000  1
  O  O131  1  0.98033000  0.40124000  0.50470000  1
