# generated using pymatgen
data_Zn8H72C99O38
_symmetry_space_group_name_H-M   'P 1'
_cell_length_a   26.66900000
_cell_length_b   26.66900000
_cell_length_c   32.72287268
_cell_angle_alpha   65.95225023
_cell_angle_beta   65.95225023
_cell_angle_gamma   60.00000000
_symmetry_Int_Tables_number   1
_chemical_formula_structural   Zn8H72C99O38
_chemical_formula_sum   'Zn16 H144 C198 O76'
_cell_volume   17784.88439707
_cell_formula_units_Z   2
loop_
 _symmetry_equiv_pos_site_id
 _symmetry_equiv_pos_as_xyz
  1  'x, y, z'
loop_
 _atom_site_type_symbol
 _atom_site_label
 _atom_site_symmetry_multiplicity
 _atom_site_fract_x
 _atom_site_fract_y
 _atom_site_fract_z
 _atom_site_occupancy
  C  C0  1  0.43904000  0.06096000  0.75000000  1
  C  C1  1  0.56096000  0.93904000  0.25000000  1
  C  C2  1  0.23529000  0.54063000  0.83335000  1
  C  C3  1  0.04063000  0.73529000  0.33335000  1
  C  C4  1  0.20017000  0.59265000  0.80725000  1
  C  C5  1  0.09265000  0.70017000  0.30725000  1
  C  C6  1  0.70379000  0.91302000  0.55634000  1
  C  C7  1  0.41302000  0.20379000  0.05634000  1
  C  C8  1  0.02182000  0.23603000  0.59243000  1
  C  C9  1  0.73603000  0.52182000  0.09243000  1
  C  C10  1  0.96521000  0.27356000  0.62024000  1
  C  C11  1  0.77356000  0.46521000  0.12024000  1
  C  C12  1  0.85962000  0.34263000  0.67424000  1
  C  C13  1  0.84263000  0.35962000  0.17424000  1
  C  C14  1  0.11519000  0.69320000  0.76225000  1
  C  C15  1  0.19320000  0.61519000  0.26225000  1
  C  C16  1  0.64981000  0.93893000  0.59141000  1
  C  C17  1  0.43893000  0.14981000  0.09141000  1
  C  C18  1  0.44827000  0.00532000  0.79168000  1
  C  C19  1  0.50532000  0.94827000  0.29168000  1
  C  C20  1  0.55216000  0.98566000  0.65972000  1
  C  C21  1  0.06096000  0.75000000  0.75000000  1
  C  C22  1  0.25000000  0.56096000  0.25000000  1
  C  C23  1  0.48566000  0.05216000  0.15972000  1
  C  C24  1  0.49162000  0.90563000  0.86050000  1
  C  C25  1  0.40563000  0.99162000  0.36050000  1
  C  C26  1  0.91789000  0.31516000  0.60233000  1
  C  C27  1  0.81516000  0.41789000  0.10233000  1
  C  C28  1  0.51397000  0.85670000  0.89479000  1
  C  C29  1  0.35670000  0.01397000  0.39479000  1
  C  C30  1  0.86539000  0.34813000  0.62822000  1
  C  C31  1  0.84813000  0.36539000  0.12822000  1
  C  C32  1  0.69320000  0.42936000  0.76225000  1
  C  C33  1  0.92936000  0.19320000  0.26225000  1
  C  C34  1  0.00532000  0.75473000  0.79168000  1
  C  C35  1  0.25473000  0.50532000  0.29168000  1
  C  C36  1  0.38481000  0.07064000  0.73775000  1
  C  C37  1  0.57064000  0.88481000  0.23775000  1
  C  C38  1  0.05173000  0.74527000  0.70832000  1
  C  C39  1  0.24527000  0.55173000  0.20832000  1
  C  C40  1  0.60642000  0.91527000  0.61340000  1
  C  C41  1  0.41527000  0.10642000  0.11340000  1
  C  C42  1  0.55784000  0.93901000  0.64697000  1
  C  C43  1  0.43901000  0.05784000  0.14697000  1
  C  C44  1  0.34813000  0.15826000  0.62822000  1
  C  C45  1  0.65826000  0.84813000  0.12822000  1
  C  C46  1  0.34263000  0.12351000  0.67424000  1
  C  C47  1  0.62351000  0.84263000  0.17424000  1
  C  C48  1  0.20379000  0.32685000  0.05634000  1
  C  C49  1  0.82685000  0.70379000  0.55634000  1
  C  C50  1  0.64038000  0.37649000  0.82576000  1
  C  C51  1  0.87649000  0.14038000  0.32576000  1
  C  C52  1  0.52182000  0.64972000  0.09243000  1
  C  C53  1  0.14972000  0.02182000  0.59243000  1
  C  C54  1  0.98566000  0.80246000  0.65972000  1
  C  C55  1  0.30246000  0.48566000  0.15972000  1
  C  C56  1  0.93901000  0.85618000  0.64697000  1
  C  C57  1  0.35618000  0.43901000  0.14697000  1
  C  C58  1  0.63461000  0.34174000  0.87178000  1
  C  C59  1  0.84174000  0.13461000  0.37178000  1
  C  C60  1  0.67315000  0.58698000  0.94366000  1
  C  C61  1  0.08698000  0.17315000  0.44366000  1
  C  C62  1  0.90563000  0.74225000  0.86050000  1
  C  C63  1  0.24225000  0.40563000  0.36050000  1
  C  C64  1  0.35028000  0.26397000  0.90757000  1
  C  C65  1  0.76397000  0.85028000  0.40757000  1
  C  C66  1  0.31516000  0.16462000  0.60233000  1
  C  C67  1  0.66462000  0.81516000  0.10233000  1
  C  C68  1  0.10642000  0.36491000  0.11340000  1
  C  C69  1  0.86491000  0.60642000  0.61340000  1
  C  C70  1  0.94784000  0.69754000  0.84028000  1
  C  C71  1  0.19754000  0.44784000  0.34028000  1
  C  C72  1  0.59265000  0.39993000  0.80725000  1
  C  C73  1  0.89993000  0.09265000  0.30725000  1
  C  C74  1  0.14981000  0.31985000  0.09141000  1
  C  C75  1  0.81985000  0.64981000  0.59141000  1
  C  C76  1  0.29983000  0.10007000  0.69275000  1
  C  C77  1  0.60007000  0.79983000  0.19275000  1
  C  C78  1  0.00838000  0.75775000  0.63950000  1
  C  C79  1  0.25775000  0.50838000  0.13950000  1
  C  C80  1  0.91527000  0.86491000  0.61340000  1
  C  C81  1  0.36491000  0.41527000  0.11340000  1
  C  C82  1  0.85670000  0.73454000  0.89479000  1
  C  C83  1  0.23454000  0.35670000  0.39479000  1
  C  C84  1  0.46521000  0.64099000  0.12024000  1
  C  C85  1  0.14099000  0.96521000  0.62024000  1
  C  C86  1  0.58211000  0.33538000  0.89767000  1
  C  C87  1  0.83538000  0.08211000  0.39767000  1
  C  C88  1  0.73529000  0.89073000  0.33335000  1
  C  C89  1  0.39073000  0.23529000  0.83335000  1
  C  C90  1  0.68015000  0.56107000  0.90859000  1
  C  C91  1  0.06107000  0.18015000  0.40859000  1
  C  C92  1  0.10927000  0.95937000  0.66665000  1
  C  C93  1  0.45937000  0.60927000  0.16665000  1
  C  C94  1  0.05784000  0.35618000  0.14697000  1
  C  C95  1  0.85618000  0.55784000  0.64697000  1
  C  C96  1  0.01397000  0.23454000  0.39479000  1
  C  C97  1  0.73454000  0.51397000  0.89479000  1
  C  C98  1  0.35901000  0.22644000  0.87976000  1
  C  C99  1  0.72644000  0.85901000  0.37976000  1
  C  C100  1  0.27356000  0.14099000  0.62024000  1
  C  C101  1  0.64099000  0.77356000  0.12024000  1
  C  C102  1  0.98603000  0.76546000  0.60521000  1
  C  C103  1  0.26546000  0.48603000  0.10521000  1
  C  C104  1  0.94216000  0.64382000  0.85303000  1
  C  C105  1  0.14382000  0.44216000  0.35303000  1
  C  C106  1  0.54063000  0.39073000  0.83335000  1
  C  C107  1  0.89073000  0.04063000  0.33335000  1
  C  C108  1  0.93893000  0.81985000  0.59141000  1
  C  C109  1  0.31985000  0.43893000  0.09141000  1
  C  C110  1  0.26471000  0.10927000  0.66665000  1
  C  C111  1  0.60927000  0.76471000  0.16665000  1
  C  C112  1  0.41789000  0.66462000  0.10233000  1
  C  C113  1  0.16462000  0.91789000  0.60233000  1
  C  C114  1  0.53479000  0.35901000  0.87976000  1
  C  C115  1  0.85901000  0.03479000  0.37976000  1
  C  C116  1  0.76546000  0.64330000  0.60521000  1
  C  C117  1  0.14330000  0.26546000  0.10521000  1
  C  C118  1  0.63509000  0.58473000  0.88660000  1
  C  C119  1  0.08473000  0.13509000  0.38660000  1
  C  C120  1  0.99162000  0.24225000  0.36050000  1
  C  C121  1  0.74225000  0.49162000  0.86050000  1
  C  C122  1  0.70017000  0.89993000  0.30725000  1
  C  C123  1  0.39993000  0.20017000  0.80725000  1
  C  C124  1  0.85019000  0.68015000  0.90859000  1
  C  C125  1  0.18015000  0.35019000  0.40859000  1
  C  C126  1  0.10007000  0.90735000  0.69275000  1
  C  C127  1  0.40735000  0.60007000  0.19275000  1
  C  C128  1  0.05216000  0.30246000  0.15972000  1
  C  C129  1  0.80246000  0.55216000  0.65972000  1
  C  C130  1  0.89358000  0.63509000  0.88660000  1
  C  C131  1  0.13509000  0.39358000  0.38660000  1
  C  C132  1  0.33538000  0.18484000  0.89767000  1
  C  C133  1  0.68484000  0.83538000  0.39767000  1
  C  C134  1  0.23603000  0.14972000  0.59243000  1
  C  C135  1  0.64972000  0.73603000  0.09243000  1
  C  C136  1  0.75775000  0.59437000  0.63950000  1
  C  C137  1  0.09437000  0.25775000  0.13950000  1
  C  C138  1  0.91302000  0.82685000  0.55634000  1
  C  C139  1  0.32685000  0.41302000  0.05634000  1
  C  C140  1  0.36539000  0.65826000  0.12822000  1
  C  C141  1  0.15826000  0.86539000  0.62822000  1
  C  C142  1  0.64382000  0.56099000  0.85303000  1
  C  C143  1  0.06099000  0.14382000  0.35303000  1
  C  C144  1  0.69754000  0.51434000  0.84028000  1
  C  C145  1  0.01434000  0.19754000  0.34028000  1
  C  C146  1  0.47818000  0.35028000  0.90757000  1
  C  C147  1  0.85028000  0.97818000  0.40757000  1
  C  C148  1  0.35962000  0.62351000  0.17424000  1
  C  C149  1  0.12351000  0.85962000  0.67424000  1
  C  C150  1  0.79621000  0.67315000  0.94366000  1
  C  C151  1  0.17315000  0.29621000  0.44366000  1
  C  C152  1  0.37649000  0.15737000  0.82576000  1
  C  C153  1  0.65737000  0.87649000  0.32576000  1
  C  C154  1  0.34174000  0.15187000  0.87178000  1
  C  C155  1  0.65187000  0.84174000  0.37178000  1
  C  C156  1  0.44216000  0.06099000  0.35303000  1
  C  C157  1  0.56099000  0.94216000  0.85303000  1
  C  C158  1  0.39358000  0.08473000  0.38660000  1
  C  C159  1  0.58473000  0.89358000  0.88660000  1
  C  C160  1  0.94827000  0.25473000  0.29168000  1
  C  C161  1  0.75473000  0.44827000  0.79168000  1
  C  C162  1  0.61519000  0.92936000  0.26225000  1
  C  C163  1  0.42936000  0.11519000  0.76225000  1
  C  C164  1  0.74527000  0.49468000  0.70832000  1
  C  C165  1  0.99468000  0.24527000  0.20832000  1
  C  C166  1  0.07064000  0.80680000  0.73775000  1
  C  C167  1  0.30680000  0.57064000  0.23775000  1
  C  C168  1  0.13461000  0.65187000  0.37178000  1
  C  C169  1  0.15187000  0.63461000  0.87178000  1
  C  C170  1  0.48603000  0.14330000  0.10521000  1
  C  C171  1  0.64330000  0.98603000  0.60521000  1
  C  C172  1  0.08211000  0.68484000  0.39767000  1
  C  C173  1  0.18484000  0.58211000  0.89767000  1
  C  C174  1  0.50838000  0.09437000  0.13950000  1
  C  C175  1  0.59437000  0.00838000  0.63950000  1
  C  C176  1  0.75000000  0.43904000  0.75000000  1
  C  C177  1  0.93904000  0.25000000  0.25000000  1
  C  C178  1  0.44784000  0.01434000  0.34028000  1
  C  C179  1  0.51434000  0.94784000  0.84028000  1
  C  C180  1  0.55173000  0.99468000  0.20832000  1
  C  C181  1  0.49468000  0.05173000  0.70832000  1
  C  C182  1  0.35019000  0.06107000  0.40859000  1
  C  C183  1  0.56107000  0.85019000  0.90859000  1
  C  C184  1  0.88481000  0.30680000  0.23775000  1
  C  C185  1  0.80680000  0.38481000  0.73775000  1
  C  C186  1  0.14038000  0.65737000  0.32576000  1
  C  C187  1  0.15737000  0.64038000  0.82576000  1
  C  C188  1  0.03479000  0.72644000  0.37976000  1
  C  C189  1  0.22644000  0.53479000  0.87976000  1
  C  C190  1  0.97818000  0.76397000  0.40757000  1
  C  C191  1  0.26397000  0.47818000  0.90757000  1
  C  C192  1  0.29621000  0.08698000  0.44366000  1
  C  C193  1  0.58698000  0.79621000  0.94366000  1
  C  C194  1  0.79983000  0.40735000  0.19275000  1
  C  C195  1  0.90735000  0.29983000  0.69275000  1
  C  C196  1  0.76471000  0.45937000  0.16665000  1
  C  C197  1  0.95937000  0.26471000  0.66665000  1
  H  H198  1  0.80670000  0.34890000  0.76250000  1
  H  H199  1  0.84890000  0.30670000  0.26250000  1
  H  H200  1  0.26480000  0.50950000  0.82000000  1
  H  H201  1  0.00950000  0.76480000  0.32000000  1
  H  H202  1  0.20570000  0.59540000  0.77650000  1
  H  H203  1  0.09540000  0.70570000  0.27650000  1
  H  H204  1  0.01130000  0.76000000  0.81670000  1
  H  H205  1  0.26000000  0.51130000  0.31670000  1
  H  H206  1  0.65800000  0.46590000  0.76660000  1
  H  H207  1  0.96590000  0.15800000  0.26660000  1
  H  H208  1  0.41200000  0.01130000  0.81670000  1
  H  H209  1  0.51130000  0.91200000  0.31670000  1
  H  H210  1  0.37450000  0.17720000  0.61520000  1
  H  H211  1  0.67720000  0.87450000  0.11520000  1
  H  H212  1  0.92130000  0.32140000  0.57140000  1
  H  H213  1  0.82140000  0.42130000  0.07140000  1
  H  H214  1  0.83310000  0.37450000  0.61520000  1
  H  H215  1  0.87450000  0.33310000  0.11520000  1
  H  H216  1  0.45830000  0.97020000  0.78280000  1
  H  H217  1  0.47020000  0.95830000  0.28280000  1
  H  H218  1  0.08800000  0.74000000  0.68330000  1
  H  H219  1  0.24000000  0.58800000  0.18330000  1
  H  H220  1  0.97020000  0.78870000  0.78280000  1
  H  H221  1  0.28870000  0.47020000  0.28280000  1
  H  H222  1  0.10950000  0.65800000  0.76660000  1
  H  H223  1  0.15800000  0.60950000  0.26660000  1
  H  H224  1  0.34890000  0.08190000  0.76250000  1
  H  H225  1  0.58190000  0.84890000  0.26250000  1
  H  H226  1  0.46090000  0.90960000  0.85120000  1
  H  H227  1  0.40960000  0.96090000  0.35120000  1
  H  H228  1  0.69330000  0.41810000  0.73750000  1
  H  H229  1  0.91810000  0.19330000  0.23750000  1
  H  H230  1  0.49810000  0.82790000  0.90880000  1
  H  H231  1  0.32790000  0.99810000  0.40880000  1
  H  H232  1  0.90960000  0.77830000  0.85120000  1
  H  H233  1  0.27830000  0.40960000  0.35120000  1
  H  H234  1  0.92380000  0.88640000  0.66140000  1
  H  H235  1  0.38640000  0.42380000  0.16140000  1
  H  H236  1  0.11040000  0.40070000  0.10530000  1
  H  H237  1  0.90070000  0.61040000  0.60530000  1
  H  H238  1  0.39050000  0.03410000  0.73340000  1
  H  H239  1  0.53410000  0.89050000  0.23340000  1
  H  H240  1  0.66690000  0.32280000  0.88480000  1
  H  H241  1  0.82280000  0.16690000  0.38480000  1
  H  H242  1  0.04170000  0.71130000  0.71720000  1
  H  H243  1  0.21130000  0.54170000  0.21720000  1
  H  H244  1  0.61040000  0.88360000  0.60530000  1
  H  H245  1  0.38360000  0.11040000  0.10530000  1
  H  H246  1  0.52840000  0.92380000  0.66140000  1
  H  H247  1  0.42380000  0.02840000  0.16140000  1
  H  H248  1  0.32140000  0.18590000  0.57140000  1
  H  H249  1  0.68590000  0.82140000  0.07140000  1
  H  H250  1  0.76480000  0.90570000  0.32000000  1
  H  H251  1  0.40570000  0.26480000  0.82000000  1
  H  H252  1  0.09430000  0.99050000  0.68000000  1
  H  H253  1  0.49050000  0.59430000  0.18000000  1
  H  H254  1  0.99810000  0.26520000  0.40880000  1
  H  H255  1  0.76520000  0.49810000  0.90880000  1
  H  H256  1  0.59540000  0.42240000  0.77650000  1
  H  H257  1  0.92240000  0.09540000  0.27650000  1
  H  H258  1  0.82790000  0.76520000  0.90880000  1
  H  H259  1  0.26520000  0.32790000  0.40880000  1
  H  H260  1  0.03910000  0.72170000  0.64880000  1
  H  H261  1  0.22170000  0.53910000  0.14880000  1
  H  H262  1  0.02840000  0.38640000  0.16140000  1
  H  H263  1  0.88640000  0.52840000  0.66140000  1
  H  H264  1  0.40070000  0.38360000  0.10530000  1
  H  H265  1  0.88360000  0.90070000  0.60530000  1
  H  H266  1  0.29430000  0.07760000  0.72350000  1
  H  H267  1  0.57760000  0.79430000  0.22350000  1
  H  H268  1  0.57870000  0.31410000  0.92860000  1
  H  H269  1  0.81410000  0.07870000  0.42860000  1
  H  H270  1  0.42130000  0.68590000  0.07140000  1
  H  H271  1  0.18590000  0.92130000  0.57140000  1
  H  H272  1  0.70570000  0.92240000  0.27650000  1
  H  H273  1  0.42240000  0.20570000  0.77650000  1
  H  H274  1  0.11640000  0.09930000  0.39470000  1
  H  H275  1  0.59930000  0.61640000  0.89470000  1
  H  H276  1  0.97160000  0.61360000  0.83860000  1
  H  H277  1  0.11360000  0.47160000  0.33860000  1
  H  H278  1  0.96090000  0.27830000  0.35120000  1
  H  H279  1  0.77830000  0.46090000  0.85120000  1
  H  H280  1  0.73480000  0.67210000  0.59120000  1
  H  H281  1  0.17210000  0.23480000  0.09120000  1
  H  H282  1  0.07760000  0.90460000  0.72350000  1
  H  H283  1  0.40460000  0.57760000  0.22350000  1
  H  H284  1  0.00190000  0.73480000  0.59120000  1
  H  H285  1  0.23480000  0.50190000  0.09120000  1
  H  H286  1  0.50950000  0.40570000  0.82000000  1
  H  H287  1  0.90570000  0.00950000  0.32000000  1
  H  H288  1  0.23520000  0.09430000  0.68000000  1
  H  H289  1  0.59430000  0.73520000  0.18000000  1
  H  H290  1  0.31410000  0.17860000  0.92860000  1
  H  H291  1  0.67860000  0.81410000  0.42860000  1
  H  H292  1  0.47160000  0.07620000  0.33860000  1
  H  H293  1  0.57620000  0.97160000  0.83860000  1
  H  H294  1  0.38960000  0.11640000  0.39470000  1
  H  H295  1  0.61640000  0.88960000  0.89470000  1
  H  H296  1  0.95830000  0.28870000  0.28280000  1
  H  H297  1  0.78870000  0.45830000  0.78280000  1
  H  H298  1  0.33310000  0.67720000  0.11520000  1
  H  H299  1  0.17720000  0.83310000  0.61520000  1
  H  H300  1  0.60950000  0.96590000  0.26660000  1
  H  H301  1  0.46590000  0.10950000  0.76660000  1
  H  H302  1  0.88960000  0.59930000  0.89470000  1
  H  H303  1  0.09930000  0.38960000  0.39470000  1
  H  H304  1  0.61360000  0.57620000  0.83860000  1
  H  H305  1  0.07620000  0.11360000  0.33860000  1
  H  H306  1  0.72170000  0.59040000  0.64880000  1
  H  H307  1  0.09040000  0.22170000  0.14880000  1
  H  H308  1  0.50190000  0.17210000  0.09120000  1
  H  H309  1  0.67210000  0.00190000  0.59120000  1
  H  H310  1  0.30670000  0.58190000  0.26250000  1
  H  H311  1  0.08190000  0.80670000  0.76250000  1
  H  H312  1  0.53910000  0.09040000  0.14880000  1
  H  H313  1  0.59040000  0.03910000  0.64880000  1
  H  H314  1  0.41810000  0.15110000  0.73750000  1
  H  H315  1  0.65110000  0.91810000  0.23750000  1
  H  H316  1  0.89050000  0.34200000  0.23340000  1
  H  H317  1  0.84200000  0.39050000  0.73340000  1
  H  H318  1  0.71130000  0.52980000  0.71720000  1
  H  H319  1  0.02980000  0.21130000  0.21720000  1
  H  H320  1  0.91200000  0.26000000  0.31670000  1
  H  H321  1  0.76000000  0.41200000  0.81670000  1
  H  H322  1  0.54170000  0.02980000  0.21720000  1
  H  H323  1  0.52980000  0.04170000  0.71720000  1
  H  H324  1  0.16690000  0.62550000  0.38480000  1
  H  H325  1  0.12550000  0.66690000  0.88480000  1
  H  H326  1  0.07870000  0.67860000  0.42860000  1
  H  H327  1  0.17860000  0.57870000  0.92860000  1
  H  H328  1  0.32280000  0.12550000  0.88480000  1
  H  H329  1  0.62550000  0.82280000  0.38480000  1
  H  H330  1  0.58800000  0.98870000  0.18330000  1
  H  H331  1  0.48870000  0.08800000  0.68330000  1
  H  H332  1  0.03410000  0.84200000  0.73340000  1
  H  H333  1  0.34200000  0.53410000  0.23340000  1
  H  H334  1  0.74000000  0.48870000  0.68330000  1
  H  H335  1  0.98870000  0.24000000  0.18330000  1
  H  H336  1  0.79430000  0.40460000  0.22350000  1
  H  H337  1  0.90460000  0.29430000  0.72350000  1
  H  H338  1  0.73520000  0.49050000  0.18000000  1
  H  H339  1  0.99050000  0.23520000  0.68000000  1
  H  H340  1  0.19330000  0.65110000  0.23750000  1
  H  H341  1  0.15110000  0.69330000  0.73750000  1
  O  O342  1  0.15998667  0.15998667  0.52004000  1
  O  O343  1  0.34001333  0.34001333  0.97996000  1
  O  O344  1  0.65998667  0.65998667  0.02004000  1
  O  O345  1  0.84001333  0.84001333  0.47996000  1
  O  O346  1  0.06104000  0.19570000  0.61289000  1
  O  O347  1  0.69570000  0.56104000  0.11289000  1
  O  O348  1  0.80753000  0.37908000  0.69620000  1
  O  O349  1  0.87908000  0.30753000  0.19620000  1
  O  O350  1  0.02699000  0.25377000  0.54902000  1
  O  O351  1  0.75377000  0.52699000  0.04902000  1
  O  O352  1  0.50218000  0.00413000  0.69431000  1
  O  O353  1  0.50413000  0.00218000  0.19431000  1
  O  O354  1  0.56568000  0.75705000  0.96034000  1
  O  O355  1  0.25705000  0.06568000  0.46034000  1
  O  O356  1  0.37908000  0.11719000  0.69620000  1
  O  O357  1  0.61719000  0.87908000  0.19620000  1
  O  O358  1  0.20736000  0.37557000  0.04428000  1
  O  O359  1  0.87557000  0.70736000  0.54428000  1
  O  O360  1  0.69247000  0.38281000  0.80380000  1
  O  O361  1  0.88281000  0.19247000  0.30380000  1
  O  O362  1  0.70736000  0.87279000  0.54428000  1
  O  O363  1  0.37279000  0.20736000  0.04428000  1
  O  O364  1  0.56104000  0.63037000  0.11289000  1
  O  O365  1  0.13037000  0.06104000  0.61289000  1
  O  O366  1  0.00413000  0.79938000  0.69431000  1
  O  O367  1  0.29938000  0.50413000  0.19431000  1
  O  O368  1  0.36963000  0.30430000  0.88711000  1
  O  O369  1  0.80430000  0.86963000  0.38711000  1
  O  O370  1  0.06568000  0.21693000  0.46034000  1
  O  O371  1  0.71693000  0.56568000  0.96034000  1
  O  O372  1  0.99782000  0.70062000  0.80569000  1
  O  O373  1  0.20062000  0.49782000  0.30569000  1
  O  O374  1  0.52699000  0.67022000  0.04902000  1
  O  O375  1  0.17022000  0.02699000  0.54902000  1
  O  O376  1  0.12721000  0.12443000  0.45572000  1
  O  O377  1  0.62443000  0.62721000  0.95572000  1
  O  O378  1  0.78307000  0.74295000  0.53966000  1
  O  O379  1  0.24295000  0.28307000  0.03966000  1
  O  O380  1  0.32978000  0.24623000  0.95098000  1
  O  O381  1  0.74623000  0.82978000  0.45098000  1
  O  O382  1  0.25377000  0.17022000  0.54902000  1
  O  O383  1  0.67022000  0.75377000  0.04902000  1
  O  O384  1  0.75705000  0.71693000  0.96034000  1
  O  O385  1  0.21693000  0.25705000  0.46034000  1
  O  O386  1  0.37557000  0.37279000  0.04428000  1
  O  O387  1  0.87279000  0.87557000  0.54428000  1
  O  O388  1  0.47301000  0.32978000  0.95098000  1
  O  O389  1  0.82978000  0.97301000  0.45098000  1
  O  O390  1  0.00218000  0.29938000  0.19431000  1
  O  O391  1  0.79938000  0.50218000  0.69431000  1
  O  O392  1  0.93432000  0.78307000  0.53966000  1
  O  O393  1  0.28307000  0.43432000  0.03966000  1
  O  O394  1  0.19570000  0.13037000  0.61289000  1
  O  O395  1  0.63037000  0.69570000  0.11289000  1
  O  O396  1  0.70062000  0.49587000  0.80569000  1
  O  O397  1  0.99587000  0.20062000  0.30569000  1
  O  O398  1  0.43896000  0.36963000  0.88711000  1
  O  O399  1  0.86963000  0.93896000  0.38711000  1
  O  O400  1  0.29264000  0.12721000  0.45572000  1
  O  O401  1  0.62721000  0.79264000  0.95572000  1
  O  O402  1  0.30753000  0.61719000  0.19620000  1
  O  O403  1  0.11719000  0.80753000  0.69620000  1
  O  O404  1  0.79264000  0.62443000  0.95572000  1
  O  O405  1  0.12443000  0.29264000  0.45572000  1
  O  O406  1  0.38281000  0.12092000  0.80380000  1
  O  O407  1  0.62092000  0.88281000  0.30380000  1
  O  O408  1  0.43432000  0.24295000  0.03966000  1
  O  O409  1  0.74295000  0.93432000  0.53966000  1
  O  O410  1  0.49782000  0.99587000  0.30569000  1
  O  O411  1  0.49587000  0.99782000  0.80569000  1
  O  O412  1  0.97301000  0.74623000  0.45098000  1
  O  O413  1  0.24623000  0.47301000  0.95098000  1
  O  O414  1  0.19247000  0.62092000  0.30380000  1
  O  O415  1  0.12092000  0.69247000  0.80380000  1
  O  O416  1  0.93896000  0.80430000  0.38711000  1
  O  O417  1  0.30430000  0.43896000  0.88711000  1
  Zn  Zn418  1  0.13748000  0.13748000  0.58756000  1
  Zn  Zn419  1  0.36252000  0.36252000  0.91244000  1
  Zn  Zn420  1  0.63748333  0.63748333  0.08755000  1
  Zn  Zn421  1  0.86252000  0.86252000  0.41244000  1
  Zn  Zn422  1  0.09488000  0.23145000  0.49810000  1
  Zn  Zn423  1  0.73145000  0.59488000  0.99810000  1
  Zn  Zn424  1  0.59488000  0.67557000  0.99810000  1
  Zn  Zn425  1  0.17557000  0.09488000  0.49810000  1
  Zn  Zn426  1  0.32443000  0.26855000  0.00190000  1
  Zn  Zn427  1  0.76855000  0.82443000  0.50190000  1
  Zn  Zn428  1  0.23145000  0.17557000  0.49810000  1
  Zn  Zn429  1  0.67557000  0.73145000  0.99810000  1
  Zn  Zn430  1  0.40512000  0.32443000  0.00190000  1
  Zn  Zn431  1  0.82443000  0.90512000  0.50190000  1
  Zn  Zn432  1  0.90512000  0.76855000  0.50190000  1
  Zn  Zn433  1  0.26855000  0.40512000  0.00190000  1
