# generated using pymatgen
data_CoH8(C3N)4
_symmetry_space_group_name_H-M   'P 1'
_cell_length_a   12.45800000
_cell_length_b   17.31450000
_cell_length_c   17.31450583
_cell_angle_alpha   82.56363783
_cell_angle_beta   68.91475001
_cell_angle_gamma   68.91480000
_symmetry_Int_Tables_number   1
_chemical_formula_structural   CoH8(C3N)4
_chemical_formula_sum   'Co8 H64 C96 N32'
_cell_volume   3251.43298040
_cell_formula_units_Z   8
loop_
 _symmetry_equiv_pos_site_id
 _symmetry_equiv_pos_as_xyz
  1  'x, y, z'
loop_
 _atom_site_type_symbol
 _atom_site_label
 _atom_site_symmetry_multiplicity
 _atom_site_fract_x
 _atom_site_fract_y
 _atom_site_fract_z
 _atom_site_occupancy
  Co  Co0  1  0.08841000  0.82318000  0.75000000  1
  Co  Co1  1  0.66159000  0.25000000  0.17682000  1
  Co  Co2  1  0.91159000  0.75000000  0.67682000  1
  Co  Co3  1  0.33841000  0.32318000  0.25000000  1
  Co  Co4  1  0.66159000  0.67682000  0.75000000  1
  Co  Co5  1  0.08841000  0.25000000  0.32318000  1
  Co  Co6  1  0.33841000  0.75000000  0.82318000  1
  Co  Co7  1  0.91159000  0.17682000  0.25000000  1
  H  H8  1  0.46630000  0.84010000  0.51590000  1
  H  H9  1  0.82230000  0.48410000  0.15990000  1
  H  H10  1  0.30640000  0.51590000  0.65990000  1
  H  H11  1  0.48220000  0.34010000  0.48410000  1
  H  H12  1  0.33520000  0.73810000  0.60570000  1
  H  H13  1  0.67900000  0.39430000  0.26190000  1
  H  H14  1  0.29810000  0.42700000  0.57300000  1
  H  H15  1  0.89590000  0.45290000  0.95290000  1
  H  H16  1  0.30170000  0.04710000  0.54710000  1
  H  H17  1  0.07330000  0.60570000  0.76190000  1
  H  H18  1  0.44090000  0.23810000  0.39430000  1
  H  H19  1  0.92670000  0.73810000  0.89430000  1
  H  H20  1  0.55910000  0.10570000  0.26190000  1
  H  H21  1  0.15730000  0.98310000  0.66150000  1
  H  H22  1  0.80190000  0.33850000  0.01690000  1
  H  H23  1  0.82230000  0.65990000  0.98410000  1
  H  H24  1  0.46630000  0.01590000  0.34010000  1
  H  H25  1  0.34880000  0.54710000  0.45290000  1
  H  H26  1  0.37110000  0.92700000  0.42700000  1
  H  H27  1  0.72510000  0.57300000  0.07300000  1
  H  H28  1  0.70190000  0.92700000  0.07300000  1
  H  H29  1  0.85960000  0.98310000  0.83850000  1
  H  H30  1  0.68120000  0.16150000  0.01690000  1
  H  H31  1  0.69360000  0.84010000  0.98410000  1
  H  H32  1  0.51780000  0.01590000  0.15990000  1
  H  H33  1  0.14040000  0.66150000  0.51690000  1
  H  H34  1  0.31880000  0.48310000  0.33850000  1
  H  H35  1  0.80190000  0.51690000  0.83850000  1
  H  H36  1  0.15730000  0.16150000  0.48310000  1
  H  H37  1  0.65120000  0.04710000  0.95290000  1
  H  H38  1  0.67900000  0.76190000  0.89430000  1
  H  H39  1  0.33520000  0.10570000  0.23810000  1
  H  H40  1  0.66480000  0.89430000  0.76190000  1
  H  H41  1  0.32100000  0.23810000  0.10570000  1
  H  H42  1  0.34880000  0.95290000  0.04710000  1
  H  H43  1  0.84270000  0.83850000  0.51690000  1
  H  H44  1  0.19810000  0.48310000  0.16150000  1
  H  H45  1  0.68120000  0.51690000  0.66150000  1
  H  H46  1  0.85960000  0.33850000  0.48310000  1
  H  H47  1  0.48220000  0.98410000  0.84010000  1
  H  H48  1  0.30640000  0.15990000  0.01590000  1
  H  H49  1  0.31880000  0.83850000  0.98310000  1
  H  H50  1  0.14040000  0.01690000  0.16150000  1
  H  H51  1  0.29810000  0.07300000  0.92700000  1
  H  H52  1  0.27490000  0.42700000  0.92700000  1
  H  H53  1  0.62890000  0.07300000  0.57300000  1
  H  H54  1  0.65120000  0.45290000  0.54710000  1
  H  H55  1  0.53370000  0.98410000  0.65990000  1
  H  H56  1  0.17770000  0.34010000  0.01590000  1
  H  H57  1  0.19810000  0.66150000  0.98310000  1
  H  H58  1  0.84270000  0.01690000  0.33850000  1
  H  H59  1  0.44090000  0.89430000  0.73810000  1
  H  H60  1  0.07330000  0.26190000  0.10570000  1
  H  H61  1  0.55910000  0.76190000  0.60570000  1
  H  H62  1  0.92670000  0.39430000  0.23810000  1
  H  H63  1  0.69830000  0.95290000  0.45290000  1
  H  H64  1  0.10410000  0.54710000  0.04710000  1
  H  H65  1  0.70190000  0.57300000  0.42700000  1
  H  H66  1  0.32100000  0.60570000  0.73810000  1
  H  H67  1  0.66480000  0.26190000  0.39430000  1
  H  H68  1  0.51780000  0.65990000  0.51590000  1
  H  H69  1  0.69360000  0.48410000  0.34010000  1
  H  H70  1  0.17770000  0.51590000  0.84010000  1
  H  H71  1  0.53370000  0.15990000  0.48410000  1
  C  C72  1  0.03390000  0.68200000  0.96560000  1
  C  C73  1  0.68150000  0.03440000  0.31800000  1
  C  C74  1  0.51640000  0.62340000  0.48160000  1
  C  C75  1  0.62140000  0.51840000  0.37660000  1
  C  C76  1  0.61130000  0.98450000  0.37850000  1
  C  C77  1  0.97430000  0.62150000  0.01550000  1
  C  C78  1  0.50200000  0.87660000  0.48160000  1
  C  C79  1  0.86020000  0.51840000  0.12340000  1
  C  C80  1  0.37300000  0.42810000  0.57190000  1
  C  C81  1  0.02570000  0.48450000  0.87850000  1
  C  C82  1  0.38870000  0.12150000  0.51550000  1
  C  C83  1  0.00000000  0.72900000  0.90260000  1
  C  C84  1  0.63160000  0.09740000  0.27100000  1
  C  C85  1  0.21280000  0.95070000  0.68710000  1
  C  C86  1  0.85060000  0.31290000  0.04930000  1
  C  C87  1  0.97420000  0.42110000  0.92110000  1
  C  C88  1  0.31640000  0.07890000  0.57890000  1
  C  C89  1  0.40420000  0.62150000  0.48450000  1
  C  C90  1  0.51020000  0.51550000  0.37850000  1
  C  C91  1  0.50200000  0.98160000  0.37660000  1
  C  C92  1  0.86020000  0.62340000  0.01840000  1
  C  C93  1  0.44490000  0.92810000  0.42810000  1
  C  C94  1  0.80110000  0.57190000  0.07190000  1
  C  C95  1  0.27100000  0.72900000  0.59740000  1
  C  C96  1  0.59740000  0.40260000  0.27100000  1
  C  C97  1  0.28410000  0.68200000  0.53440000  1
  C  C98  1  0.50050000  0.46560000  0.31800000  1
  C  C99  1  0.39530000  0.57890000  0.42110000  1
  C  C100  1  0.96610000  0.53440000  0.81800000  1
  C  C101  1  0.31850000  0.18200000  0.46560000  1
  C  C102  1  0.00000000  0.59740000  0.77100000  1
  C  C103  1  0.36840000  0.22900000  0.40260000  1
  C  C104  1  0.16350000  0.68710000  0.54930000  1
  C  C105  1  0.39990000  0.45070000  0.31290000  1
  C  C106  1  0.62700000  0.92810000  0.07190000  1
  C  C107  1  0.85060000  0.54930000  0.81290000  1
  C  C108  1  0.21280000  0.18710000  0.45070000  1
  C  C109  1  0.83650000  0.95070000  0.81290000  1
  C  C110  1  0.60010000  0.18710000  0.04930000  1
  C  C111  1  0.51640000  0.98160000  0.12340000  1
  C  C112  1  0.62140000  0.87660000  0.01840000  1
  C  C113  1  0.71590000  0.96560000  0.81800000  1
  C  C114  1  0.49950000  0.18200000  0.03440000  1
  C  C115  1  0.60470000  0.07890000  0.92110000  1
  C  C116  1  0.40420000  0.98450000  0.12150000  1
  C  C117  1  0.51020000  0.87850000  0.01550000  1
  C  C118  1  0.72900000  0.90260000  0.77100000  1
  C  C119  1  0.59740000  0.77100000  0.90260000  1
  C  C120  1  0.40260000  0.22900000  0.09740000  1
  C  C121  1  0.27100000  0.09740000  0.22900000  1
  C  C122  1  0.48980000  0.12150000  0.98450000  1
  C  C123  1  0.59580000  0.01550000  0.87850000  1
  C  C124  1  0.39530000  0.92110000  0.07890000  1
  C  C125  1  0.50050000  0.81800000  0.96560000  1
  C  C126  1  0.28410000  0.03440000  0.18200000  1
  C  C127  1  0.37860000  0.12340000  0.98160000  1
  C  C128  1  0.48360000  0.01840000  0.87660000  1
  C  C129  1  0.39990000  0.81290000  0.95070000  1
  C  C130  1  0.16350000  0.04930000  0.18710000  1
  C  C131  1  0.78720000  0.81290000  0.54930000  1
  C  C132  1  0.14940000  0.45070000  0.18710000  1
  C  C133  1  0.37300000  0.07190000  0.92810000  1
  C  C134  1  0.60010000  0.54930000  0.68710000  1
  C  C135  1  0.83650000  0.31290000  0.45070000  1
  C  C136  1  0.63160000  0.77100000  0.59740000  1
  C  C137  1  0.00000000  0.40260000  0.22900000  1
  C  C138  1  0.68150000  0.81800000  0.53440000  1
  C  C139  1  0.03390000  0.46560000  0.18200000  1
  C  C140  1  0.60470000  0.42110000  0.57890000  1
  C  C141  1  0.49950000  0.53440000  0.68200000  1
  C  C142  1  0.71590000  0.31800000  0.46560000  1
  C  C143  1  0.40260000  0.59740000  0.72900000  1
  C  C144  1  0.72900000  0.27100000  0.40260000  1
  C  C145  1  0.19890000  0.42810000  0.92810000  1
  C  C146  1  0.55510000  0.07190000  0.57190000  1
  C  C147  1  0.13980000  0.37660000  0.98160000  1
  C  C148  1  0.49800000  0.01840000  0.62340000  1
  C  C149  1  0.48980000  0.48450000  0.62150000  1
  C  C150  1  0.59580000  0.37850000  0.51550000  1
  C  C151  1  0.68360000  0.92110000  0.42110000  1
  C  C152  1  0.02580000  0.57890000  0.07890000  1
  C  C153  1  0.14940000  0.68710000  0.95070000  1
  C  C154  1  0.78720000  0.04930000  0.31290000  1
  C  C155  1  0.36840000  0.90260000  0.72900000  1
  C  C156  1  0.00000000  0.27100000  0.09740000  1
  C  C157  1  0.61130000  0.87850000  0.48450000  1
  C  C158  1  0.97430000  0.51550000  0.12150000  1
  C  C159  1  0.62700000  0.57190000  0.42810000  1
  C  C160  1  0.13980000  0.48160000  0.87660000  1
  C  C161  1  0.49800000  0.12340000  0.51840000  1
  C  C162  1  0.02570000  0.37850000  0.98450000  1
  C  C163  1  0.38870000  0.01550000  0.62150000  1
  C  C164  1  0.37860000  0.48160000  0.62340000  1
  C  C165  1  0.48360000  0.37660000  0.51840000  1
  C  C166  1  0.31850000  0.96560000  0.68200000  1
  C  C167  1  0.96610000  0.31800000  0.03440000  1
  N  N168  1  0.08630000  0.76000000  0.85460000  1
  N  N169  1  0.70090000  0.14540000  0.24000000  1
  N  N170  1  0.20200000  0.88420000  0.73320000  1
  N  N171  1  0.81940000  0.26680000  0.11580000  1
  N  N172  1  0.15370000  0.76000000  0.64540000  1
  N  N173  1  0.55910000  0.35460000  0.24000000  1
  N  N174  1  0.08620000  0.73320000  0.61580000  1
  N  N175  1  0.43520000  0.38420000  0.26680000  1
  N  N176  1  0.91380000  0.88420000  0.76680000  1
  N  N177  1  0.56480000  0.23320000  0.11580000  1
  N  N178  1  0.91370000  0.64540000  0.74000000  1
  N  N179  1  0.29910000  0.26000000  0.35460000  1
  N  N180  1  0.84630000  0.85460000  0.74000000  1
  N  N181  1  0.44090000  0.26000000  0.14540000  1
  N  N182  1  0.81940000  0.61580000  0.76680000  1
  N  N183  1  0.20200000  0.23320000  0.38420000  1
  N  N184  1  0.79800000  0.76680000  0.61580000  1
  N  N185  1  0.18060000  0.38420000  0.23320000  1
  N  N186  1  0.55910000  0.74000000  0.85460000  1
  N  N187  1  0.15370000  0.14540000  0.26000000  1
  N  N188  1  0.70090000  0.74000000  0.64540000  1
  N  N189  1  0.08630000  0.35460000  0.26000000  1
  N  N190  1  0.43520000  0.76680000  0.88420000  1
  N  N191  1  0.08620000  0.11580000  0.23320000  1
  N  N192  1  0.56480000  0.61580000  0.73320000  1
  N  N193  1  0.91380000  0.26680000  0.38420000  1
  N  N194  1  0.44090000  0.64540000  0.76000000  1
  N  N195  1  0.84630000  0.24000000  0.35460000  1
  N  N196  1  0.18060000  0.73320000  0.88420000  1
  N  N197  1  0.79800000  0.11580000  0.26680000  1
  N  N198  1  0.29910000  0.85460000  0.76000000  1
  N  N199  1  0.91370000  0.24000000  0.14540000  1
