# generated using pymatgen
data_Zr2P3C14N2(O5F)2
_symmetry_space_group_name_H-M   'P 1'
_cell_length_a   8.83510000
_cell_length_b   9.22940000
_cell_length_c   13.58950000
_cell_angle_alpha   100.79000000
_cell_angle_beta   90.00000000
_cell_angle_gamma   90.00000000
_symmetry_Int_Tables_number   1
_chemical_formula_structural   Zr2P3C14N2(O5F)2
_chemical_formula_sum   'Zr4 P6 C28 N4 O20 F4'
_cell_volume   1088.53243901
_cell_formula_units_Z   2
loop_
 _symmetry_equiv_pos_site_id
 _symmetry_equiv_pos_as_xyz
  1  'x, y, z'
loop_
 _atom_site_type_symbol
 _atom_site_label
 _atom_site_symmetry_multiplicity
 _atom_site_fract_x
 _atom_site_fract_y
 _atom_site_fract_z
 _atom_site_occupancy
  Zr  Zr0  1  0.25330000  0.07050000  0.10990000  1
  Zr  Zr1  1  0.74670000  0.57050000  0.10990000  1
  Zr  Zr2  1  0.25330000  0.42950000  0.89010000  1
  Zr  Zr3  1  0.74670000  0.92950000  0.89010000  1
  P  P4  1  0.45770000  0.75000000  1.00000000  1
  P  P5  1  0.54230000  0.25000000  0.00000000  1
  P  P6  1  0.11740000  0.42950000  0.12940000  1
  P  P7  1  0.88260000  0.92950000  0.12940000  1
  P  P8  1  0.11740000  0.07050000  0.87060000  1
  P  P9  1  0.88260000  0.57050000  0.87060000  1
  C  C10  1  0.25400000  0.55640000  0.19430000  1
  C  C11  1  0.74600000  0.05640000  0.19430000  1
  C  C12  1  0.21100000  0.71700000  0.22380000  1
  C  C13  1  0.78900000  0.21700000  0.22380000  1
  C  C14  1  0.00640000  0.71770000  0.34910000  1
  C  C15  1  0.99360000  0.21770000  0.34910000  1
  C  C16  1  0.24630000  0.65490000  0.39660000  1
  C  C17  1  0.75370000  0.15490000  0.39660000  1
  C  C18  1  0.05190000  0.11690000  0.40030000  1
  C  C19  1  0.94810000  0.61690000  0.40030000  1
  C  C20  1  0.18300000  0.52910000  0.42660000  1
  C  C21  1  0.81700000  0.02910000  0.42660000  1
  C  C22  1  0.02710000  0.53400000  0.45520000  1
  C  C23  1  0.97290000  0.03400000  0.45520000  1
  C  C24  1  0.02710000  0.96600000  0.54480000  1
  C  C25  1  0.97290000  0.46600000  0.54480000  1
  C  C26  1  0.18300000  0.97090000  0.57340000  1
  C  C27  1  0.81700000  0.47090000  0.57340000  1
  C  C28  1  0.05190000  0.38310000  0.59970000  1
  C  C29  1  0.94810000  0.88310000  0.59970000  1
  C  C30  1  0.24630000  0.84510000  0.60340000  1
  C  C31  1  0.75370000  0.34510000  0.60340000  1
  C  C32  1  0.00640000  0.78230000  0.65090000  1
  C  C33  1  0.99360000  0.28230000  0.65090000  1
  C  C34  1  0.21100000  0.78300000  0.77620000  1
  C  C35  1  0.78900000  0.28300000  0.77620000  1
  C  C36  1  0.25400000  0.94360000  0.80570000  1
  C  C37  1  0.74600000  0.44360000  0.80570000  1
  N  N38  1  0.16580000  0.72320000  0.33470000  1
  N  N39  1  0.83420000  0.22320000  0.33470000  1
  N  N40  1  0.16580000  0.77680000  0.66530000  1
  N  N41  1  0.83420000  0.27680000  0.66530000  1
  O  O42  1  0.14880000  0.43840000  0.02090000  1
  O  O43  1  0.85120000  0.93840000  0.02090000  1
  O  O44  1  0.34850000  0.86690000  0.06520000  1
  O  O45  1  0.65150000  0.36690000  0.06520000  1
  O  O46  1  0.44000000  0.16980000  0.06600000  1
  O  O47  1  0.56000000  0.66980000  0.06600000  1
  O  O48  1  0.05170000  0.97890000  0.15170000  1
  O  O49  1  0.94830000  0.47890000  0.15170000  1
  O  O50  1  0.15270000  0.27690000  0.15370000  1
  O  O51  1  0.84730000  0.77690000  0.15370000  1
  O  O52  1  0.15270000  0.22310000  0.84630000  1
  O  O53  1  0.84730000  0.72310000  0.84630000  1
  O  O54  1  0.05170000  0.52110000  0.84830000  1
  O  O55  1  0.94830000  0.02110000  0.84830000  1
  O  O56  1  0.44000000  0.33020000  0.93400000  1
  O  O57  1  0.56000000  0.83020000  0.93400000  1
  O  O58  1  0.34850000  0.63310000  0.93480000  1
  O  O59  1  0.65150000  0.13310000  0.93480000  1
  O  O60  1  0.14880000  0.06160000  0.97910000  1
  O  O61  1  0.85120000  0.56160000  0.97910000  1
  F  F62  1  0.33390000  0.08140000  0.25090000  1
  F  F63  1  0.66610000  0.58140000  0.25090000  1
  F  F64  1  0.33390000  0.41860000  0.74910000  1
  F  F65  1  0.66610000  0.91860000  0.74910000  1
