# generated using pymatgen
data_NdH5C10O7
_symmetry_space_group_name_H-M   'P 1'
_cell_length_a   6.90590000
_cell_length_b   9.98900000
_cell_length_c   11.09215543
_cell_angle_alpha   116.76156774
_cell_angle_beta   104.27392716
_cell_angle_gamma   90.00000000
_symmetry_Int_Tables_number   1
_chemical_formula_structural   NdH5C10O7
_chemical_formula_sum   'Nd2 H10 C20 O14'
_cell_volume   656.64750664
_cell_formula_units_Z   2
loop_
 _symmetry_equiv_pos_site_id
 _symmetry_equiv_pos_as_xyz
  1  'x, y, z'
loop_
 _atom_site_type_symbol
 _atom_site_label
 _atom_site_symmetry_multiplicity
 _atom_site_fract_x
 _atom_site_fract_y
 _atom_site_fract_z
 _atom_site_occupancy
  Nd  Nd0  1  0.55764000  0.61229000  0.70379000  1
  Nd  Nd1  1  0.05764000  0.09150000  0.70379000  1
  H  H2  1  0.97000000  0.81130000  0.19520000  1
  H  H3  1  0.86680000  0.14780000  0.09060000  1
  H  H4  1  0.81240000  0.54160000  0.36260000  1
  H  H5  1  0.60970000  0.61380000  0.36640000  1
  H  H6  1  0.54030000  0.99610000  0.31720000  1
  H  H7  1  0.47000000  0.38390000  0.19520000  1
  H  H8  1  0.36680000  0.94280000  0.09060000  1
  H  H9  1  0.31240000  0.82100000  0.36260000  1
  H  H10  1  0.10970000  0.75260000  0.36640000  1
  H  H11  1  0.04030000  0.32110000  0.31720000  1
  C  C12  1  0.98140000  0.91380000  0.22020000  1
  C  C13  1  0.92210000  0.11570000  0.15700000  1
  C  C14  1  0.90580000  0.96250000  0.12040000  1
  C  C15  1  0.83100000  0.72550000  0.55480000  1
  C  C16  1  0.79780000  0.84450000  0.97360000  1
  C  C17  1  0.72150000  0.58670000  0.42000000  1
  C  C18  1  0.70200000  0.24940000  0.54520000  1
  C  C19  1  0.59600000  0.22300000  0.39760000  1
  C  C20  1  0.57420000  0.33700000  0.35760000  1
  C  C21  1  0.52200000  0.07460000  0.29380000  1
  C  C22  1  0.48140000  0.30640000  0.22020000  1
  C  C23  1  0.42210000  0.04130000  0.15700000  1
  C  C24  1  0.40580000  0.15790000  0.12040000  1
  C  C25  1  0.33100000  0.82930000  0.55480000  1
  C  C26  1  0.29780000  0.12910000  0.97360000  1
  C  C27  1  0.22150000  0.83330000  0.42000000  1
  C  C28  1  0.20200000  0.29580000  0.54520000  1
  C  C29  1  0.09600000  0.17460000  0.39760000  1
  C  C30  1  0.07420000  0.02060000  0.35760000  1
  C  C31  1  0.02200000  0.21920000  0.29380000  1
  O  O32  1  0.89980000  0.82982000  0.54084000  1
  O  O33  1  0.84350000  0.72398000  0.66936000  1
  O  O34  1  0.84020000  0.71170000  0.93000000  1
  O  O35  1  0.77430000  0.14071000  0.55842000  1
  O  O36  1  0.71540000  0.38019000  0.64878000  1
  O  O37  1  0.66350000  0.88125000  0.89770000  1
  O  O38  1  0.64970000  0.48290000  0.46100000  1
  O  O39  1  0.39980000  0.71102000  0.54084000  1
  O  O40  1  0.34350000  0.94538000  0.66936000  1
  O  O41  1  0.34020000  0.21830000  0.93000000  1
  O  O42  1  0.27430000  0.41771000  0.55842000  1
  O  O43  1  0.21540000  0.26859000  0.64878000  1
  O  O44  1  0.16350000  0.01645000  0.89770000  1
  O  O45  1  0.14970000  0.97810000  0.46100000  1
