# generated using pymatgen
data_Co3H78C88S2(N8O7)2
_symmetry_space_group_name_H-M   'P 1'
_cell_length_a   10.52350000
_cell_length_b   19.09000000
_cell_length_c   23.34901708
_cell_angle_alpha   99.71013482
_cell_angle_beta   103.02312031
_cell_angle_gamma   90.00000000
_symmetry_Int_Tables_number   1
_chemical_formula_structural   Co3H78C88S2(N8O7)2
_chemical_formula_sum   'Co6 H156 C176 S4 N32 O28'
_cell_volume   4501.01969460
_cell_formula_units_Z   2
loop_
 _symmetry_equiv_pos_site_id
 _symmetry_equiv_pos_as_xyz
  1  'x, y, z'
loop_
 _atom_site_type_symbol
 _atom_site_label
 _atom_site_symmetry_multiplicity
 _atom_site_fract_x
 _atom_site_fract_y
 _atom_site_fract_z
 _atom_site_occupancy
  Co  Co0  1  0.01766000  0.25000000  0.00000000  1
  Co  Co1  1  0.44168000  0.42733000  0.27826000  1
  Co  Co2  1  0.16342000  0.07267000  0.72174000  1
  Co  Co3  1  0.83658000  0.92733000  0.27826000  1
  Co  Co4  1  0.55832000  0.57267000  0.72174000  1
  Co  Co5  1  0.98234000  0.75000000  1.00000000  1
  H  H6  1  0.44130000  0.63720000  0.43600000  1
  H  H7  1  0.71080000  0.87970000  0.69100000  1
  H  H8  1  0.63160000  0.64950000  0.60700000  1
  H  H9  1  0.68780000  0.44400000  0.66140000  1
  H  H10  1  0.69970000  0.25910000  0.66140000  1
  H  H11  1  0.14030000  0.65820000  0.09640000  1
  H  H12  1  0.20100000  0.56380000  0.14560000  1
  H  H13  1  0.49950000  0.96080000  0.44280000  1
  H  H14  1  0.93490000  0.53520000  0.87040000  1
  H  H15  1  0.93550000  0.03520000  0.87040000  1
  H  H16  1  0.76970000  0.76180000  0.69320000  1
  H  H17  1  0.26880000  0.14220000  0.19140000  1
  H  H18  1  0.85910000  0.64220000  0.78140000  1
  H  H19  1  0.58360000  0.94190000  0.50220000  1
  H  H20  1  0.82770000  0.90610000  0.74520000  1
  H  H21  1  0.60750000  0.68460000  0.51540000  1
  H  H22  1  0.31730000  0.27580000  0.21020000  1
  H  H23  1  0.86450000  0.28690000  0.74880000  1
  H  H24  1  0.75770000  0.31800000  0.63420000  1
  H  H25  1  0.88430000  0.78690000  0.74880000  1
  H  H26  1  0.20020000  0.95590000  0.06420000  1
  H  H27  1  0.37810000  0.75060000  0.24040000  1
  H  H28  1  0.43660000  0.94060000  0.29700000  1
  H  H29  1  0.04390000  0.84180000  0.90360000  1
  H  H30  1  0.92230000  0.14220000  0.78140000  1
  H  H31  1  0.37190000  0.09570000  0.22580000  1
  H  H32  1  0.71040000  0.44490000  0.55500000  1
  H  H33  1  0.61950000  0.06920000  0.46000000  1
  H  H34  1  0.91750000  0.40610000  0.74520000  1
  H  H35  1  0.58400000  0.76870000  0.40840000  1
  H  H36  1  0.70350000  0.05060000  0.51980000  1
  H  H37  1  0.13600000  0.54410000  0.93580000  1
  H  H38  1  0.05540000  0.93620000  0.85440000  1
  H  H39  1  0.35310000  0.84680000  0.12460000  1
  H  H40  1  0.27090000  0.35110000  0.04200000  1
  H  H41  1  0.92350000  0.26180000  0.69320000  1
  H  H42  1  0.87650000  0.81800000  0.63420000  1
  H  H43  1  0.56550000  0.11070000  0.32080000  1
  H  H44  1  0.64270000  0.65240000  0.39300000  1
  H  H45  1  0.07740000  0.35780000  0.80860000  1
  H  H46  1  0.22890000  0.14890000  0.95800000  1
  H  H47  1  0.31730000  0.53090000  0.03300000  1
  H  H48  1  0.98020000  0.37970000  0.69100000  1
  H  H49  1  0.84460000  0.94490000  0.55500000  1
  H  H50  1  0.64820000  0.85050000  0.35660000  1
  H  H51  1  0.81630000  0.55060000  0.51980000  1
  H  H52  1  0.96170000  0.75910000  0.66140000  1
  H  H53  1  0.67280000  0.51800000  0.36480000  1
  H  H54  1  0.97360000  0.94400000  0.66140000  1
  H  H55  1  0.28430000  0.96910000  0.96700000  1
  H  H56  1  0.10710000  0.22420000  0.78980000  1
  H  H57  1  0.38760000  0.47020000  0.06420000  1
  H  H58  1  0.49290000  0.73280000  0.16620000  1
  H  H59  1  0.69200000  0.01800000  0.36480000  1
  H  H60  1  0.70840000  0.35050000  0.35660000  1
  H  H61  1  0.22850000  0.65320000  0.87540000  1
  H  H62  1  0.75030000  0.15240000  0.39300000  1
  H  H63  1  0.53820000  0.52700000  0.18060000  1
  H  H64  1  0.97540000  0.14950000  0.60700000  1
  H  H65  1  0.14610000  0.40430000  0.77420000  1
  H  H66  1  0.13770000  0.74940000  0.75960000  1
  H  H67  1  0.84050000  0.56920000  0.46000000  1
  H  H68  1  0.32340000  0.02980000  0.93580000  1
  H  H69  1  0.90790000  0.18460000  0.51540000  1
  H  H70  1  0.44790000  0.00950000  0.05180000  1
  H  H71  1  0.82440000  0.26870000  0.40840000  1
  H  H72  1  0.91860000  0.44190000  0.50220000  1
  H  H73  1  0.56700000  0.12310000  0.13620000  1
  H  H74  1  0.56920000  0.62310000  0.13620000  1
  H  H75  1  0.75530000  0.61070000  0.32080000  1
  H  H76  1  0.13960000  0.55940000  0.70300000  1
  H  H77  1  0.00530000  0.86280000  0.56400000  1
  H  H78  1  0.39610000  0.49050000  0.94820000  1
  H  H79  1  0.64240000  0.02700000  0.18060000  1
  H  H80  1  0.48500000  0.07270000  0.02280000  1
  H  H81  1  0.46220000  0.42730000  0.97720000  1
  H  H82  1  0.32670000  0.76720000  0.83380000  1
  H  H83  1  0.05670000  0.53920000  0.55720000  1
  H  H84  1  0.94330000  0.46080000  0.44280000  1
  H  H85  1  0.67330000  0.23280000  0.16620000  1
  H  H86  1  0.53780000  0.57270000  0.02280000  1
  H  H87  1  0.51500000  0.92730000  0.97720000  1
  H  H88  1  0.35760000  0.97300000  0.81940000  1
  H  H89  1  0.60390000  0.50950000  0.05180000  1
  H  H90  1  0.99470000  0.13720000  0.43600000  1
  H  H91  1  0.86040000  0.44060000  0.29700000  1
  H  H92  1  0.24470000  0.38930000  0.67920000  1
  H  H93  1  0.43080000  0.37690000  0.86380000  1
  H  H94  1  0.43300000  0.87690000  0.86380000  1
  H  H95  1  0.08140000  0.55810000  0.49780000  1
  H  H96  1  0.17560000  0.73130000  0.59160000  1
  H  H97  1  0.55210000  0.99050000  0.94820000  1
  H  H98  1  0.09210000  0.81540000  0.48460000  1
  H  H99  1  0.67660000  0.97020000  0.06420000  1
  H  H100  1  0.15950000  0.43080000  0.54000000  1
  H  H101  1  0.86230000  0.25060000  0.24040000  1
  H  H102  1  0.85390000  0.59570000  0.22580000  1
  H  H103  1  0.02460000  0.85050000  0.39300000  1
  H  H104  1  0.46180000  0.47300000  0.81940000  1
  H  H105  1  0.24970000  0.84760000  0.60700000  1
  H  H106  1  0.77150000  0.34680000  0.12460000  1
  H  H107  1  0.29160000  0.64950000  0.64340000  1
  H  H108  1  0.30800000  0.98200000  0.63520000  1
  H  H109  1  0.50710000  0.26720000  0.83380000  1
  H  H110  1  0.61240000  0.52980000  0.93580000  1
  H  H111  1  0.89290000  0.77580000  0.21020000  1
  H  H112  1  0.71570000  0.03090000  0.03300000  1
  H  H113  1  0.02640000  0.05600000  0.33860000  1
  H  H114  1  0.32720000  0.48200000  0.63520000  1
  H  H115  1  0.03830000  0.24090000  0.33860000  1
  H  H116  1  0.18370000  0.44940000  0.48020000  1
  H  H117  1  0.35180000  0.14950000  0.64340000  1
  H  H118  1  0.15540000  0.05510000  0.44500000  1
  H  H119  1  0.01980000  0.62030000  0.30900000  1
  H  H120  1  0.68270000  0.46910000  0.96700000  1
  H  H121  1  0.77110000  0.85110000  0.04200000  1
  H  H122  1  0.92260000  0.64220000  0.19140000  1
  H  H123  1  0.35730000  0.34760000  0.60700000  1
  H  H124  1  0.43450000  0.88930000  0.67920000  1
  H  H125  1  0.12350000  0.18200000  0.36580000  1
  H  H126  1  0.07650000  0.73820000  0.30680000  1
  H  H127  1  0.72910000  0.64890000  0.95800000  1
  H  H128  1  0.64690000  0.15320000  0.87540000  1
  H  H129  1  0.94460000  0.06380000  0.14560000  1
  H  H130  1  0.86400000  0.45590000  0.06420000  1
  H  H131  1  0.29650000  0.94940000  0.48020000  1
  H  H132  1  0.41600000  0.23130000  0.59160000  1
  H  H133  1  0.08250000  0.59390000  0.25480000  1
  H  H134  1  0.38050000  0.93080000  0.54000000  1
  H  H135  1  0.28960000  0.55510000  0.44500000  1
  H  H136  1  0.62810000  0.90430000  0.77420000  1
  H  H137  1  0.07770000  0.85780000  0.21860000  1
  H  H138  1  0.95610000  0.15820000  0.09640000  1
  H  H139  1  0.56340000  0.05940000  0.70300000  1
  H  H140  1  0.62190000  0.24940000  0.75960000  1
  H  H141  1  0.79980000  0.04410000  0.93580000  1
  H  H142  1  0.11570000  0.21310000  0.25120000  1
  H  H143  1  0.24230000  0.68200000  0.36580000  1
  H  H144  1  0.13550000  0.71310000  0.25120000  1
  H  H145  1  0.68270000  0.72420000  0.78980000  1
  H  H146  1  0.39250000  0.31540000  0.48460000  1
  H  H147  1  0.17230000  0.09390000  0.25480000  1
  H  H148  1  0.41640000  0.05810000  0.49780000  1
  H  H149  1  0.14090000  0.35780000  0.21860000  1
  H  H150  1  0.73120000  0.85780000  0.80860000  1
  H  H151  1  0.23030000  0.23820000  0.30680000  1
  H  H152  1  0.06450000  0.96480000  0.12960000  1
  H  H153  1  0.06510000  0.46480000  0.12960000  1
  H  H154  1  0.50050000  0.03920000  0.55720000  1
  H  H155  1  0.79900000  0.43620000  0.85440000  1
  H  H156  1  0.85970000  0.34180000  0.90360000  1
  H  H157  1  0.30030000  0.74090000  0.33860000  1
  H  H158  1  0.31220000  0.55600000  0.33860000  1
  H  H159  1  0.36840000  0.35050000  0.39300000  1
  H  H160  1  0.28920000  0.12030000  0.30900000  1
  H  H161  1  0.55870000  0.36280000  0.56400000  1
  C  C162  1  0.12016000  0.56192000  0.11892000  1
  C  C163  1  0.91517000  0.38165000  0.90994000  1
  C  C164  1  0.89950000  0.19040000  0.88940000  1
  C  C165  1  0.43608000  0.36963000  0.42496000  1
  C  C166  1  0.75007000  0.09717000  0.73394000  1
  C  C167  1  0.55239000  0.37760000  0.52758000  1
  C  C168  1  0.54892000  0.65098000  0.52044000  1
  C  C169  1  0.34542000  0.57392000  0.31004000  1
  C  C170  1  0.76356000  0.86758000  0.72752000  1
  C  C171  1  0.08775000  0.11373000  0.05110000  1
  C  C172  1  0.20067000  0.84591000  0.16314000  1
  C  C173  1  0.92866000  0.99810000  0.89072000  1
  C  C174  1  0.83707000  0.13255000  0.78354000  1
  C  C175  1  0.54693000  0.98081000  0.48286000  1
  C  C176  1  0.96206000  0.49810000  0.89072000  1
  C  C177  1  0.74574000  0.30512000  0.67108000  1
  C  C178  1  0.15234000  0.99623000  0.07068000  1
  C  C179  1  0.99477000  0.88165000  0.90994000  1
  C  C180  1  0.03665000  0.38627000  0.94890000  1
  C  C181  1  0.32262000  0.13843000  0.23024000  1
  C  C182  1  0.98990000  0.69040000  0.88940000  1
  C  C183  1  0.52436000  0.41962000  0.41892000  1
  C  C184  1  0.37773000  0.91678000  0.26346000  1
  C  C185  1  0.16017000  0.05287000  0.04174000  1
  C  C186  1  0.64235000  0.42640000  0.52290000  1
  C  C187  1  0.00124000  0.93808000  0.88108000  1
  C  C188  1  0.83430000  0.79986000  0.71200000  1
  C  C189  1  0.39290000  0.64872000  0.25560000  1
  C  C190  1  0.38821000  0.26641000  0.23922000  1
  C  C191  1  0.08166000  0.50377000  0.92932000  1
  C  C192  1  0.62635000  0.44689000  0.46730000  1
  C  C193  1  0.11843000  0.44713000  0.95826000  1
  C  C194  1  0.94647000  0.63255000  0.78354000  1
  C  C195  1  0.87770000  0.29986000  0.71200000  1
  C  C196  1  0.32767000  0.86039000  0.16034000  1
  C  C197  1  0.65632000  0.03043000  0.47964000  1
  C  C198  1  0.41054000  0.70645000  0.22888000  1
  C  C199  1  0.20996000  0.37093000  0.01432000  1
  C  C200  1  0.03753000  0.65409000  0.83686000  1
  C  C201  1  0.44092000  0.58180000  0.23884000  1
  C  C202  1  0.41787000  0.89491000  0.21014000  1
  C  C203  1  0.19564000  0.12907000  0.98568000  1
  C  C204  1  0.52461000  0.20764000  0.29702000  1
  C  C205  1  0.96396000  0.36758000  0.72752000  1
  C  C206  1  0.98387000  0.59717000  0.73394000  1
  C  C207  1  0.64121000  0.49162000  0.38902000  1
  C  C208  1  0.63323000  0.75414000  0.38046000  1
  C  C209  1  0.92534000  0.80512000  0.67108000  1
  C  C210  1  0.56348000  0.27960000  0.30836000  1
  C  C211  1  0.59307000  0.15829000  0.32814000  1
  C  C212  1  0.47789000  0.69517000  0.18478000  1
  C  C213  1  0.66707000  0.68350000  0.37034000  1
  C  C214  1  0.50704000  0.57127000  0.19308000  1
  C  C215  1  0.34400000  0.48220000  0.02600000  1
  C  C216  1  0.67117000  0.80326000  0.34974000  1
  C  C217  1  0.09238000  0.36157000  0.76976000  1
  C  C218  1  0.16733000  0.63961000  0.83966000  1
  C  C219  1  0.67857000  0.30326000  0.34974000  1
  C  C220  1  0.70327000  0.18350000  0.37034000  1
  C  C221  1  0.82332000  0.53043000  0.47964000  1
  C  C222  1  0.31800000  0.01780000  0.97400000  1
  C  C223  1  0.03538000  0.92608000  0.68996000  1
  C  C224  1  0.55772000  0.90714000  0.20744000  1
  C  C225  1  0.88055000  0.92640000  0.52290000  1
  C  C226  1  0.52478000  0.62878000  0.16676000  1
  C  C227  1  0.74781000  0.99162000  0.38902000  1
  C  C228  1  0.74723000  0.25414000  0.38046000  1
  C  C229  1  0.84095000  0.94689000  0.46730000  1
  C  C230  1  0.11427000  0.58322000  0.73654000  1
  C  C231  1  0.14899000  0.23359000  0.76078000  1
  C  C232  1  0.13730000  0.85128000  0.74440000  1
  C  C233  1  0.73507000  0.65829000  0.32814000  1
  C  C234  1  0.18166000  0.79355000  0.77112000  1
  C  C235  1  0.20773000  0.60509000  0.78986000  1
  C  C236  1  0.01112000  0.13037000  0.57504000  1
  C  C237  1  0.74488000  0.77960000  0.30836000  1
  C  C238  1  0.45256000  0.02360000  0.01432000  1
  C  C239  1  0.20208000  0.91820000  0.76116000  1
  C  C240  1  0.64972000  0.40714000  0.20744000  1
  C  C241  1  0.97519000  0.87760000  0.52758000  1
  C  C242  1  0.97152000  0.15098000  0.52044000  1
  C  C243  1  0.43824000  0.47640000  0.98568000  1
  C  C244  1  0.93593000  0.48081000  0.48286000  1
  C  C245  1  0.64198000  0.12878000  0.16676000  1
  C  C246  1  0.77241000  0.70764000  0.29702000  1
  C  C247  1  0.89456000  0.91962000  0.41892000  1
  C  C248  1  0.29311000  0.80483000  0.81522000  1
  C  C249  1  0.68604000  0.07127000  0.19308000  1
  C  C250  1  0.31396000  0.92873000  0.80692000  1
  C  C251  1  0.70689000  0.19517000  0.18478000  1
  C  C252  1  0.10544000  0.08038000  0.58108000  1
  C  C253  1  0.22759000  0.29236000  0.70298000  1
  C  C254  1  0.35802000  0.87122000  0.83324000  1
  C  C255  1  0.06407000  0.51919000  0.51714000  1
  C  C256  1  0.56176000  0.52360000  0.01432000  1
  C  C257  1  0.02848000  0.84902000  0.47956000  1
  C  C258  1  0.02481000  0.12240000  0.47242000  1
  C  C259  1  0.35028000  0.59286000  0.79256000  1
  C  C260  1  0.79792000  0.08180000  0.23884000  1
  C  C261  1  0.54744000  0.97640000  0.98568000  1
  C  C262  1  0.25512000  0.22040000  0.69164000  1
  C  C263  1  0.98888000  0.86963000  0.42496000  1
  C  C264  1  0.79227000  0.39491000  0.21014000  1
  C  C265  1  0.81834000  0.20645000  0.22888000  1
  C  C266  1  0.26493000  0.34171000  0.67186000  1
  C  C267  1  0.86270000  0.14872000  0.25560000  1
  C  C268  1  0.85101000  0.76641000  0.23922000  1
  C  C269  1  0.88573000  0.41678000  0.26346000  1
  C  C270  1  0.15905000  0.05311000  0.53270000  1
  C  C271  1  0.25277000  0.74586000  0.61954000  1
  C  C272  1  0.25219000  0.00838000  0.61098000  1
  C  C273  1  0.47522000  0.37122000  0.83324000  1
  C  C274  1  0.11945000  0.07360000  0.47710000  1
  C  C275  1  0.44228000  0.09286000  0.79256000  1
  C  C276  1  0.96462000  0.07392000  0.31004000  1
  C  C277  1  0.68200000  0.98220000  0.02600000  1
  C  C278  1  0.17668000  0.46957000  0.52036000  1
  C  C279  1  0.29673000  0.81650000  0.62966000  1
  C  C280  1  0.32143000  0.69674000  0.65026000  1
  C  C281  1  0.83267000  0.36039000  0.16034000  1
  C  C282  1  0.90762000  0.63843000  0.23024000  1
  C  C283  1  0.32883000  0.19674000  0.65026000  1
  C  C284  1  0.65600000  0.51780000  0.97400000  1
  C  C285  1  0.49296000  0.42873000  0.80692000  1
  C  C286  1  0.33293000  0.31650000  0.62966000  1
  C  C287  1  0.52211000  0.30483000  0.81522000  1
  C  C288  1  0.40693000  0.84171000  0.67186000  1
  C  C289  1  0.43652000  0.72040000  0.69164000  1
  C  C290  1  0.07466000  0.19488000  0.32892000  1
  C  C291  1  0.36677000  0.24586000  0.61954000  1
  C  C292  1  0.35879000  0.50838000  0.61098000  1
  C  C293  1  0.01613000  0.40283000  0.26606000  1
  C  C294  1  0.03604000  0.63242000  0.27248000  1
  C  C295  1  0.47539000  0.79236000  0.70298000  1
  C  C296  1  0.80436000  0.87093000  0.01432000  1
  C  C297  1  0.58213000  0.10509000  0.78986000  1
  C  C298  1  0.55908000  0.41820000  0.76116000  1
  C  C299  1  0.96247000  0.34591000  0.16314000  1
  C  C300  1  0.79004000  0.62907000  0.98568000  1
  C  C301  1  0.58946000  0.29355000  0.77112000  1
  C  C302  1  0.34368000  0.96957000  0.52036000  1
  C  C303  1  0.67233000  0.13961000  0.83966000  1
  C  C304  1  0.12230000  0.70014000  0.28800000  1
  C  C305  1  0.05353000  0.36745000  0.21646000  1
  C  C306  1  0.88157000  0.55287000  0.04174000  1
  C  C307  1  0.37365000  0.55311000  0.53270000  1
  C  C308  1  0.91834000  0.49623000  0.07068000  1
  C  C309  1  0.61179000  0.73359000  0.76078000  1
  C  C310  1  0.60710000  0.35128000  0.74440000  1
  C  C311  1  0.16570000  0.20014000  0.28800000  1
  C  C312  1  0.99876000  0.06192000  0.11892000  1
  C  C313  1  0.35765000  0.57360000  0.47710000  1
  C  C314  1  0.83983000  0.94713000  0.95826000  1
  C  C315  1  0.62227000  0.08322000  0.73654000  1
  C  C316  1  0.47564000  0.58038000  0.58108000  1
  C  C317  1  0.01010000  0.30960000  0.11060000  1
  C  C318  1  0.67738000  0.86157000  0.76976000  1
  C  C319  1  0.96335000  0.61373000  0.05110000  1
  C  C320  1  0.00523000  0.11835000  0.09006000  1
  C  C321  1  0.84766000  0.00377000  0.92932000  1
  C  C322  1  0.25426000  0.69488000  0.32892000  1
  C  C323  1  0.03794000  0.50190000  0.10928000  1
  C  C324  1  0.45307000  0.01919000  0.51714000  1
  C  C325  1  0.16293000  0.86745000  0.21646000  1
  C  C326  1  0.07134000  0.00190000  0.10928000  1
  C  C327  1  0.79933000  0.15409000  0.83686000  1
  C  C328  1  0.91225000  0.88627000  0.94890000  1
  C  C329  1  0.23644000  0.13242000  0.27248000  1
  C  C330  1  0.65458000  0.42608000  0.68996000  1
  C  C331  1  0.45108000  0.34902000  0.47956000  1
  C  C332  1  0.44761000  0.62240000  0.47242000  1
  C  C333  1  0.24993000  0.90283000  0.26606000  1
  C  C334  1  0.56392000  0.63037000  0.57504000  1
  C  C335  1  0.10050000  0.80960000  0.11060000  1
  C  C336  1  0.08483000  0.61835000  0.09006000  1
  C  C337  1  0.87984000  0.43808000  0.88108000  1
  S  S338  1  0.80511000  0.07412000  0.66720000  1
  S  S339  1  0.86209000  0.57412000  0.66720000  1
  S  S340  1  0.13791000  0.42588000  0.33280000  1
  S  S341  1  0.19489000  0.92588000  0.33280000  1
  N  N342  1  0.33276000  0.64193000  0.30132000  1
  N  N343  1  0.11242000  0.16121000  0.01504000  1
  N  N344  1  0.09738000  0.33879000  0.98496000  1
  N  N345  1  0.40921000  0.53525000  0.27442000  1
  N  N346  1  0.41325000  0.20060000  0.25150000  1
  N  N347  1  0.53652000  0.44976000  0.36964000  1
  N  N348  1  0.47260000  0.31588000  0.27180000  1
  N  N349  1  0.22803000  0.43501000  0.00046000  1
  N  N350  1  0.22757000  0.06499000  0.99954000  1
  N  N351  1  0.69950000  0.49338000  0.44680000  1
  N  N352  1  0.74730000  0.99338000  0.44680000  1
  N  N353  1  0.03144000  0.85807000  0.69868000  1
  N  N354  1  0.13479000  0.96475000  0.72558000  1
  N  N355  1  0.16175000  0.29940000  0.74850000  1
  N  N356  1  0.83312000  0.94976000  0.36964000  1
  N  N357  1  0.20080000  0.18412000  0.72820000  1
  N  N358  1  0.79920000  0.81588000  0.27180000  1
  N  N359  1  0.16688000  0.05024000  0.63036000  1
  N  N360  1  0.83825000  0.70060000  0.25150000  1
  N  N361  1  0.86521000  0.03525000  0.27442000  1
  N  N362  1  0.96856000  0.14193000  0.30132000  1
  N  N363  1  0.25270000  0.00662000  0.55320000  1
  N  N364  1  0.30050000  0.50662000  0.55320000  1
  N  N365  1  0.77243000  0.93501000  0.00046000  1
  N  N366  1  0.77197000  0.56499000  0.99954000  1
  N  N367  1  0.52740000  0.68412000  0.72820000  1
  N  N368  1  0.46348000  0.55024000  0.63036000  1
  N  N369  1  0.58675000  0.79940000  0.74850000  1
  N  N370  1  0.59079000  0.46475000  0.72558000  1
  N  N371  1  0.90262000  0.66121000  0.01504000  1
  N  N372  1  0.88758000  0.83879000  0.98496000  1
  N  N373  1  0.66724000  0.35807000  0.69868000  1
  O  O374  1  0.12870000  0.30440000  0.11340000  1
  O  O375  1  0.74023000  0.58079000  0.68746000  1
  O  O376  1  0.13980000  0.78511000  0.06340000  1
  O  O377  1  0.75856000  0.00198000  0.64212000  1
  O  O378  1  0.75224000  0.12541000  0.63068000  1
  O  O379  1  0.01530000  0.19560000  0.88660000  1
  O  O380  1  0.07640000  0.71489000  0.93660000  1
  O  O381  1  0.88356000  0.50198000  0.64212000  1
  O  O382  1  0.87844000  0.62541000  0.63068000  1
  O  O383  1  0.94723000  0.08079000  0.68746000  1
  O  O384  1  0.62046000  0.43712000  0.25470000  1
  O  O385  1  0.63424000  0.93712000  0.25470000  1
  O  O386  1  0.57069000  0.38646000  0.15904000  1
  O  O387  1  0.58835000  0.88646000  0.15904000  1
  O  O388  1  0.41165000  0.11354000  0.84096000  1
  O  O389  1  0.42931000  0.61354000  0.84096000  1
  O  O390  1  0.36576000  0.06288000  0.74530000  1
  O  O391  1  0.37954000  0.56288000  0.74530000  1
  O  O392  1  0.05277000  0.91921000  0.31254000  1
  O  O393  1  0.12156000  0.37459000  0.36932000  1
  O  O394  1  0.11644000  0.49802000  0.35788000  1
  O  O395  1  0.92360000  0.28511000  0.06340000  1
  O  O396  1  0.98470000  0.80440000  0.11340000  1
  O  O397  1  0.24776000  0.87459000  0.36932000  1
  O  O398  1  0.24144000  0.99802000  0.35788000  1
  O  O399  1  0.86020000  0.21489000  0.93660000  1
  O  O400  1  0.25977000  0.41921000  0.31254000  1
  O  O401  1  0.87130000  0.69560000  0.88660000  1
