# generated using pymatgen
data_Zn3P4(HO3)4
_symmetry_space_group_name_H-M   'P 1'
_cell_length_a   9.91440000
_cell_length_b   14.44140000
_cell_length_c   14.97850000
_cell_angle_alpha   90.00000000
_cell_angle_beta   98.88700000
_cell_angle_gamma   90.00000000
_symmetry_Int_Tables_number   1
_chemical_formula_structural   Zn3P4(HO3)4
_chemical_formula_sum   'Zn12 P16 H16 O48'
_cell_volume   2118.84300716
_cell_formula_units_Z   4
loop_
 _symmetry_equiv_pos_site_id
 _symmetry_equiv_pos_as_xyz
  1  'x, y, z'
loop_
 _atom_site_type_symbol
 _atom_site_label
 _atom_site_symmetry_multiplicity
 _atom_site_fract_x
 _atom_site_fract_y
 _atom_site_fract_z
 _atom_site_occupancy
  Zn  Zn0  1  0.15932000  0.24059000  0.50204000  1
  Zn  Zn1  1  0.18489000  0.12062000  0.12604000  1
  Zn  Zn2  1  0.20854000  0.41675000  0.18358000  1
  Zn  Zn3  1  0.29146000  0.91675000  0.31642000  1
  Zn  Zn4  1  0.31511000  0.62062000  0.37396000  1
  Zn  Zn5  1  0.34068000  0.74059000  0.99796000  1
  Zn  Zn6  1  0.65932000  0.25941000  0.00204000  1
  Zn  Zn7  1  0.68489000  0.37938000  0.62604000  1
  Zn  Zn8  1  0.70854000  0.08325000  0.68358000  1
  Zn  Zn9  1  0.79146000  0.58325000  0.81642000  1
  Zn  Zn10  1  0.81511000  0.87938000  0.87396000  1
  Zn  Zn11  1  0.84068000  0.75941000  0.49796000  1
  P  P12  1  0.02330000  0.71399000  0.94175000  1
  P  P13  1  0.10080000  0.77428000  0.38969000  1
  P  P14  1  0.21000000  0.12290000  0.33412000  1
  P  P15  1  0.24710000  0.41561000  0.40034000  1
  P  P16  1  0.25290000  0.91561000  0.09966000  1
  P  P17  1  0.29000000  0.62290000  0.16588000  1
  P  P18  1  0.39920000  0.27428000  0.11031000  1
  P  P19  1  0.47670000  0.21399000  0.55825000  1
  P  P20  1  0.52330000  0.78601000  0.44175000  1
  P  P21  1  0.60080000  0.72572000  0.88969000  1
  P  P22  1  0.71000000  0.37710000  0.83412000  1
  P  P23  1  0.74710000  0.08439000  0.90034000  1
  P  P24  1  0.75290000  0.58439000  0.59966000  1
  P  P25  1  0.79000000  0.87710000  0.66588000  1
  P  P26  1  0.89920000  0.22572000  0.61031000  1
  P  P27  1  0.97670000  0.28601000  0.05825000  1
  H  H28  1  0.03800000  0.67700000  0.02700000  1
  H  H29  1  0.14400000  0.85800000  0.10550000  1
  H  H30  1  0.18800000  0.79190000  0.47300000  1
  H  H31  1  0.21000000  0.68900000  0.17710000  1
  H  H32  1  0.29000000  0.18900000  0.32290000  1
  H  H33  1  0.31200000  0.29190000  0.02700000  1
  H  H34  1  0.35600000  0.35800000  0.39450000  1
  H  H35  1  0.46200000  0.17700000  0.47300000  1
  H  H36  1  0.53800000  0.82300000  0.52700000  1
  H  H37  1  0.64400000  0.64200000  0.60550000  1
  H  H38  1  0.68800000  0.70810000  0.97300000  1
  H  H39  1  0.71000000  0.81100000  0.67710000  1
  H  H40  1  0.79000000  0.31100000  0.82290000  1
  H  H41  1  0.81200000  0.20810000  0.52700000  1
  H  H42  1  0.85600000  0.14200000  0.89450000  1
  H  H43  1  0.96200000  0.32300000  0.97300000  1
  O  O44  1  0.04440000  0.21950000  0.59160000  1
  O  O45  1  0.04970000  0.19550000  0.05480000  1
  O  O46  1  0.05280000  0.35530000  0.11970000  1
  O  O47  1  0.12040000  0.10610000  0.24290000  1
  O  O48  1  0.12240000  0.15590000  0.40290000  1
  O  O49  1  0.12560000  0.85000000  0.32430000  1
  O  O50  1  0.13320000  0.67760000  0.35910000  1
  O  O51  1  0.16000000  0.36900000  0.46280000  1
  O  O52  1  0.16620000  0.72520000  0.91820000  1
  O  O53  1  0.16810000  0.42620000  0.30540000  1
  O  O54  1  0.19570000  0.00630000  0.06040000  1
  O  O55  1  0.20240000  0.54130000  0.13420000  1
  O  O56  1  0.29760000  0.04130000  0.36580000  1
  O  O57  1  0.30430000  0.50630000  0.43960000  1
  O  O58  1  0.33190000  0.92620000  0.19460000  1
  O  O59  1  0.33380000  0.22520000  0.58180000  1
  O  O60  1  0.34000000  0.86900000  0.03720000  1
  O  O61  1  0.36680000  0.17760000  0.14090000  1
  O  O62  1  0.37440000  0.35000000  0.17570000  1
  O  O63  1  0.37760000  0.65590000  0.09710000  1
  O  O64  1  0.37960000  0.60610000  0.25710000  1
  O  O65  1  0.44720000  0.85530000  0.38030000  1
  O  O66  1  0.45030000  0.69550000  0.44520000  1
  O  O67  1  0.45560000  0.71950000  0.90840000  1
  O  O68  1  0.54440000  0.28050000  0.09160000  1
  O  O69  1  0.54970000  0.30450000  0.55480000  1
  O  O70  1  0.55280000  0.14470000  0.61970000  1
  O  O71  1  0.62040000  0.39390000  0.74290000  1
  O  O72  1  0.62240000  0.34410000  0.90290000  1
  O  O73  1  0.62560000  0.65000000  0.82430000  1
  O  O74  1  0.63320000  0.82240000  0.85910000  1
  O  O75  1  0.66000000  0.13100000  0.96280000  1
  O  O76  1  0.66620000  0.77480000  0.41820000  1
  O  O77  1  0.66810000  0.07380000  0.80540000  1
  O  O78  1  0.69570000  0.49370000  0.56040000  1
  O  O79  1  0.70240000  0.95870000  0.63420000  1
  O  O80  1  0.79760000  0.45870000  0.86580000  1
  O  O81  1  0.80430000  0.99370000  0.93960000  1
  O  O82  1  0.83190000  0.57380000  0.69460000  1
  O  O83  1  0.83380000  0.27480000  0.08180000  1
  O  O84  1  0.84000000  0.63100000  0.53720000  1
  O  O85  1  0.86680000  0.32240000  0.64090000  1
  O  O86  1  0.87440000  0.15000000  0.67570000  1
  O  O87  1  0.87760000  0.84410000  0.59710000  1
  O  O88  1  0.87960000  0.89390000  0.75710000  1
  O  O89  1  0.94720000  0.64470000  0.88030000  1
  O  O90  1  0.95030000  0.80450000  0.94520000  1
  O  O91  1  0.95560000  0.78050000  0.40840000  1
