# generated using pymatgen
data_ScH4C8O5
_symmetry_space_group_name_H-M   'P 1'
_cell_length_a   12.38500000
_cell_length_b   15.35200000
_cell_length_c   25.03780828
_cell_angle_alpha   107.85305883
_cell_angle_beta   104.31905844
_cell_angle_gamma   89.99990000
_symmetry_Int_Tables_number   1
_chemical_formula_structural   ScH4C8O5
_chemical_formula_sum   'Sc12 H48 C96 O60'
_cell_volume   4375.67740353
_cell_formula_units_Z   12
loop_
 _symmetry_equiv_pos_site_id
 _symmetry_equiv_pos_as_xyz
  1  'x, y, z'
loop_
 _atom_site_type_symbol
 _atom_site_label
 _atom_site_symmetry_multiplicity
 _atom_site_fract_x
 _atom_site_fract_y
 _atom_site_fract_z
 _atom_site_occupancy
  Sc  Sc0  1  0.97934000  0.54169000  0.20854000  1
  Sc  Sc1  1  0.85406000  0.16645000  0.45818000  1
  Sc  Sc2  1  0.77080000  0.95831000  0.79146000  1
  Sc  Sc3  1  0.72920000  0.66685000  0.20854000  1
  Sc  Sc4  1  0.64594000  0.20827000  0.54182000  1
  Sc  Sc5  1  0.52066000  0.83315000  0.79146000  1
  Sc  Sc6  1  0.43741000  0.62506000  0.12486000  1
  Sc  Sc7  1  0.39588000  0.33355000  0.54182000  1
  Sc  Sc8  1  0.31255000  0.87494000  0.87514000  1
  Sc  Sc9  1  0.18745000  0.49980000  0.12486000  1
  Sc  Sc10  1  0.10412000  0.29173000  0.45818000  1
  Sc  Sc11  1  0.06259000  0.00020000  0.87514000  1
  H  H12  1  0.99840000  0.48400000  0.58820000  1
  H  H13  1  0.98760000  0.25000000  1.00000000  1
  H  H14  1  0.97310000  0.65330000  0.03920000  1
  H  H15  1  0.93390000  0.84670000  0.96080000  1
  H  H16  1  0.92860000  0.91690000  0.33360000  1
  H  H17  1  0.91100000  0.87190000  0.84200000  1
  H  H18  1  0.90500000  0.41670000  0.33360000  1
  H  H19  1  0.89880000  0.72100000  0.70660000  1
  H  H20  1  0.85790000  0.44510000  0.62540000  1
  H  H21  1  0.84500000  0.08240000  0.66660000  1
  H  H22  1  0.83500000  0.72940000  0.07740000  1
  H  H23  1  0.81610000  0.56610000  0.13220000  1
  H  H24  1  0.75760000  0.77060000  0.92260000  1
  H  H25  1  0.75000000  0.30200000  0.50000000  1
  H  H26  1  0.74240000  0.34800000  0.07740000  1
  H  H27  1  0.68390000  0.93390000  0.86780000  1
  H  H28  1  0.66500000  0.15200000  0.92260000  1
  H  H29  1  0.65500000  0.91573333  0.33333333  1
  H  H30  1  0.64210000  0.31970000  0.37460000  1
  H  H31  1  0.60120000  0.51440000  0.29340000  1
  H  H32  1  0.59500000  0.58310000  0.66640000  1
  H  H33  1  0.58900000  0.52990000  0.15800000  1
  H  H34  1  0.57140000  0.08330000  0.66640000  1
  H  H35  1  0.56610000  0.38590000  0.03920000  1
  H  H36  1  0.52690000  0.11410000  0.96080000  1
  H  H37  1  0.51240000  0.75000000  1.00000000  1
  H  H38  1  0.50160000  0.39580000  0.41180000  1
  H  H39  1  0.48280000  0.23280000  0.46560000  1
  H  H40  1  0.43100000  0.97010000  0.84200000  1
  H  H41  1  0.42430000  0.43900000  0.25560000  1
  H  H42  1  0.41020000  0.01600000  0.41180000  1
  H  H43  1  0.35060000  0.60060000  0.20120000  1
  H  H44  1  0.33130000  0.81660000  0.25560000  1
  H  H45  1  0.32160000  0.58420000  0.66660000  1
  H  H46  1  0.30780000  0.98560000  0.70660000  1
  H  H47  1  0.26750000  0.18030000  0.62540000  1
  H  H48  1  0.26140000  0.25000000  1.00000000  1
  H  H49  1  0.25000000  0.19800000  0.50000000  1
  H  H50  1  0.23860000  0.75000000  0.00000000  1
  H  H51  1  0.23250000  0.05490000  0.37460000  1
  H  H52  1  0.19220000  0.77900000  0.29340000  1
  H  H53  1  0.17840000  0.41753333  0.33333333  1
  H  H54  1  0.16870000  0.06100000  0.74440000  1
  H  H55  1  0.14940000  0.89940000  0.79880000  1
  H  H56  1  0.08980000  0.10420000  0.58820000  1
  H  H57  1  0.07570000  0.68340000  0.74440000  1
  H  H58  1  0.06900000  0.62810000  0.15800000  1
  H  H59  1  0.01720000  0.26720000  0.53440000  1
  C  C60  1  0.98040000  0.80650000  0.97660000  1
  C  C61  1  0.97460000  0.75050000  0.27880000  1
  C  C62  1  0.96400000  0.04700000  0.75940000  1
  C  C63  1  0.96100000  0.38080000  0.09300000  1
  C  C64  1  0.95520000  0.09890000  0.62100000  1
  C  C65  1  0.93630000  0.75000000  1.00000000  1
  C  C66  1  0.92180000  0.08320000  0.66680000  1
  C  C67  1  0.91090000  0.25000000  1.00000000  1
  C  C68  1  0.89790000  0.58270000  0.66680000  1
  C  C69  1  0.87900000  0.31030000  0.04580000  1
  C  C70  1  0.87080000  0.11890000  0.57400000  1
  C  C71  1  0.86800000  0.11920000  0.90700000  1
  C  C72  1  0.85890000  0.30560000  0.38860000  1
  C  C73  1  0.85280000  0.66480000  0.69080000  1
  C  C74  1  0.83320000  0.18970000  0.95420000  1
  C  C75  1  0.82840000  0.50120000  0.64200000  1
  C  C76  1  0.82820000  0.41653333  0.33333333  1
  C  C77  1  0.81410000  0.75000000  0.00000000  1
  C  C78  1  0.80420000  0.52830000  0.27880000  1
  C  C79  1  0.78440000  0.36050000  0.35840000  1
  C  C80  1  0.78050000  0.73720000  0.04540000  1
  C  C81  1  0.76490000  0.30820000  0.04540000  1
  C  C82  1  0.75980000  0.47220000  0.30820000  1
  C  C83  1  0.74020000  0.66400000  0.69180000  1
  C  C84  1  0.73510000  0.76280000  0.95460000  1
  C  C85  1  0.71950000  0.19180000  0.95460000  1
  C  C86  1  0.71560000  0.50210000  0.64160000  1
  C  C87  1  0.69580000  0.74950000  0.72120000  1
  C  C88  1  0.68590000  0.25000000  1.00000000  1
  C  C89  1  0.67180000  0.58320000  0.66660000  1
  C  C90  1  0.67160000  0.35920000  0.35800000  1
  C  C91  1  0.66680000  0.73550000  0.04580000  1
  C  C92  1  0.64720000  0.47400000  0.30920000  1
  C  C93  1  0.64110000  0.41700000  0.61140000  1
  C  C94  1  0.63200000  0.71220000  0.09300000  1
  C  C95  1  0.62920000  0.04490000  0.42600000  1
  C  C96  1  0.62100000  0.76450000  0.95420000  1
  C  C97  1  0.60210000  0.41590000  0.33320000  1
  C  C98  1  0.58910000  0.75000000  1.00000000  1
  C  C99  1  0.57820000  0.91640000  0.33320000  1
  C  C100  1  0.56370000  0.25000000  0.00000000  1
  C  C101  1  0.54480000  0.97790000  0.37900000  1
  C  C102  1  0.53900000  0.78780000  0.90700000  1
  C  C103  1  0.53600000  0.78760000  0.24060000  1
  C  C104  1  0.52540000  0.97170000  0.72120000  1
  C  C105  1  0.51960000  0.32990000  0.02340000  1
  C  C106  1  0.49830000  0.85630000  0.28760000  1
  C  C107  1  0.49620000  0.17010000  0.97660000  1
  C  C108  1  0.49480000  0.08340000  0.66660000  1
  C  C109  1  0.48080000  0.41590000  0.33320000  1
  C  C110  1  0.47030000  0.19440000  0.61140000  1
  C  C111  1  0.45160000  0.02780000  0.69180000  1
  C  C112  1  0.44740000  0.40310000  0.37960000  1
  C  C113  1  0.43220000  0.97650000  0.37960000  1
  C  C114  1  0.42600000  0.13950000  0.64160000  1
  C  C115  1  0.40680000  0.33120000  0.02480000  1
  C  C116  1  0.40180000  0.43010000  0.28720000  1
  C  C117  1  0.38540000  0.85710000  0.28720000  1
  C  C118  1  0.38200000  0.16880000  0.97520000  1
  C  C119  1  0.36240000  0.41640000  0.05520000  1
  C  C120  1  0.35240000  0.91730000  0.33320000  1
  C  C121  1  0.33810000  0.25000000  1.00000000  1
  C  C122  1  0.33800000  0.02600000  0.69080000  1
  C  C123  1  0.33420000  0.40110000  0.37900000  1
  C  C124  1  0.31360000  0.14080000  0.64200000  1
  C  C125  1  0.30720000  0.08360000  0.94480000  1
  C  C126  1  0.29680000  0.38110000  0.42600000  1
  C  C127  1  0.29540000  0.71240000  0.75940000  1
  C  C128  1  0.28930000  0.43130000  0.28760000  1
  C  C129  1  0.26890000  0.08410000  0.66680000  1
  C  C130  1  0.25500000  0.41680000  0.33320000  1
  C  C131  1  0.24500000  0.58360000  0.66680000  1
  C  C132  1  0.23110000  0.91730000  0.33320000  1
  C  C133  1  0.21070000  0.64370000  0.71240000  1
  C  C134  1  0.20460000  0.45300000  0.24060000  1
  C  C135  1  0.20320000  0.45510000  0.57400000  1
  C  C136  1  0.19280000  0.63880000  0.05520000  1
  C  C137  1  0.18640000  0.99880000  0.35800000  1
  C  C138  1  0.16580000  0.52210000  0.62100000  1
  C  C139  1  0.16200000  0.83520000  0.30920000  1
  C  C140  1  0.16190000  0.75000000  0.00000000  1
  C  C141  1  0.14760000  0.08410000  0.66680000  1
  C  C142  1  0.13760000  0.86120000  0.94480000  1
  C  C143  1  0.11800000  0.69360000  0.02480000  1
  C  C144  1  0.11460000  0.06990000  0.71280000  1
  C  C145  1  0.09820000  0.64290000  0.71280000  1
  C  C146  1  0.09320000  0.80640000  0.97520000  1
  C  C147  1  0.07400000  0.99790000  0.35840000  1
  C  C148  1  0.06780000  0.09690000  0.62040000  1
  C  C149  1  0.05260000  0.52350000  0.62040000  1
  C  C150  1  0.04840000  0.83600000  0.30820000  1
  C  C151  1  0.02970000  0.08300000  0.38860000  1
  C  C152  1  0.01920000  0.58270000  0.66680000  1
  C  C153  1  0.00520000  0.91673333  0.33333333  1
  C  C154  1  0.00380000  0.69350000  0.02340000  1
  C  C155  1  0.00170000  0.06870000  0.71240000  1
  O  O156  1  0.99910000  0.24910000  0.49820000  1
  O  O157  1  0.97026000  0.10216000  0.91832000  1
  O  O158  1  0.96330000  0.32960000  0.40440000  1
  O  O159  1  0.94110000  0.07480000  0.40440000  1
  O  O160  1  0.93808000  0.41568000  0.14136000  1
  O  O161  1  0.91652000  0.91902000  0.83284000  1
  O  O162  1  0.89582000  0.10732000  0.52584000  1
  O  O163  1  0.89228000  0.50348000  0.26216000  1
  O  O164  1  0.86988000  0.75868000  0.26216000  1
  O  O165  1  0.86343000  0.01773000  0.74826000  1
  O  O166  1  0.83420000  0.58420000  0.16840000  1
  O  O167  1  0.81552000  0.23722000  0.39624000  1
  O  O168  1  0.79672000  0.08432000  0.85864000  1
  O  O169  1  0.78111000  0.14921000  0.58482000  1
  O  O170  1  0.75311000  0.59641000  0.27042000  1
  O  O171  1  0.75000000  0.24760000  0.50000000  1
  O  O172  1  0.74689000  0.82599000  0.72958000  1
  O  O173  1  0.71889000  0.06439000  0.41518000  1
  O  O174  1  0.70328000  0.72568000  0.14136000  1
  O  O175  1  0.68448000  0.34098000  0.60376000  1
  O  O176  1  0.66580000  0.91580000  0.83160000  1
  O  O177  1  0.63657000  0.76947000  0.25174000  1
  O  O178  1  0.63012000  0.99652000  0.73784000  1
  O  O179  1  0.60772000  0.74132000  0.73784000  1
  O  O180  1  0.60418000  0.08148000  0.47416000  1
  O  O181  1  0.58348000  0.58618000  0.16716000  1
  O  O182  1  0.56192000  0.77432000  0.85864000  1
  O  O183  1  0.55890000  0.17040000  0.59560000  1
  O  O184  1  0.53670000  0.42520000  0.59560000  1
  O  O185  1  0.52974000  0.68384000  0.08168000  1
  O  O186  1  0.50090000  0.25090000  0.50180000  1
  O  O187  1  0.48269000  0.90359000  0.72958000  1
  O  O188  1  0.46353000  0.75163000  0.19266000  1
  O  O189  1  0.44806000  0.81616000  0.91832000  1
  O  O190  1  0.41928000  0.26278000  0.60376000  1
  O  O191  1  0.41632000  0.91382000  0.83284000  1
  O  O192  1  0.41360000  0.49290000  0.06280000  1
  O  O193  1  0.38483000  0.73053000  0.74826000  1
  O  O194  1  0.36998000  0.39268000  0.47416000  1
  O  O195  1  0.35080000  0.00710000  0.93720000  1
  O  O196  1  0.33249000  0.58249000  0.16498000  1
  O  O197  1  0.30371000  0.43561000  0.58482000  1
  O  O198  1  0.29720000  0.66290000  0.07120000  1
  O  O199  1  0.27400000  0.40830000  0.07120000  1
  O  O200  1  0.27087000  0.74837000  0.80734000  1
  O  O201  1  0.25000000  0.25240000  0.50000000  1
  O  O202  1  0.22913000  0.44103000  0.19266000  1
  O  O203  1  0.22600000  0.83710000  0.92880000  1
  O  O204  1  0.20280000  0.09170000  0.92880000  1
  O  O205  1  0.19629000  0.35079000  0.41518000  1
  O  O206  1  0.16751000  0.91751000  0.83502000  1
  O  O207  1  0.14920000  0.56990000  0.06280000  1
  O  O208  1  0.13002000  0.41852000  0.52584000  1
  O  O209  1  0.11517000  0.48227000  0.25174000  1
  O  O210  1  0.08640000  0.93010000  0.93720000  1
  O  O211  1  0.08368000  0.58098000  0.16716000  1
  O  O212  1  0.08072000  0.15902000  0.39624000  1
  O  O213  1  0.05194000  0.39784000  0.08168000  1
  O  O214  1  0.03647000  0.05897000  0.80734000  1
  O  O215  1  0.01731000  0.67401000  0.27042000  1
