# generated using pymatgen
data_ZnHC5O4
_symmetry_space_group_name_H-M   'P 1'
_cell_length_a   7.83770000
_cell_length_b   13.47929895
_cell_length_c   13.47929895
_cell_angle_alpha   86.87071558
_cell_angle_beta   86.98772211
_cell_angle_gamma   86.98772211
_symmetry_Int_Tables_number   1
_chemical_formula_structural   ZnHC5O4
_chemical_formula_sum   'Zn8 H8 C40 O32'
_cell_volume   1418.19181942
_cell_formula_units_Z   8
loop_
 _symmetry_equiv_pos_site_id
 _symmetry_equiv_pos_as_xyz
  1  'x, y, z'
loop_
 _atom_site_type_symbol
 _atom_site_label
 _atom_site_symmetry_multiplicity
 _atom_site_fract_x
 _atom_site_fract_y
 _atom_site_fract_z
 _atom_site_occupancy
  C  C0  1  0.52900000  0.30650000  0.66310000  1
  C  C1  1  0.02900000  0.66310000  0.30650000  1
  C  C2  1  0.07600000  0.16650000  0.74250000  1
  C  C3  1  0.57600000  0.74250000  0.16650000  1
  C  C4  1  0.02900000  0.23170000  0.67410000  1
  C  C5  1  0.52900000  0.67410000  0.23170000  1
  C  C6  1  0.21700000  0.00440000  0.81440000  1
  C  C7  1  0.71700000  0.81440000  0.00440000  1
  C  C8  1  0.14900000  0.06720000  0.72880000  1
  C  C9  1  0.64900000  0.72880000  0.06720000  1
  C  C10  1  0.05300000  0.20490000  0.57010000  1
  C  C11  1  0.55300000  0.57010000  0.20490000  1
  C  C12  1  0.00300000  0.27400000  0.48080000  1
  C  C13  1  0.50300000  0.48080000  0.27400000  1
  C  C14  1  0.15700000  0.04500000  0.63380000  1
  C  C15  1  0.65700000  0.63380000  0.04500000  1
  C  C16  1  0.11600000  0.11210000  0.55170000  1
  C  C17  1  0.61600000  0.55170000  0.11210000  1
  C  C18  1  0.21900000  0.93540000  0.60920000  1
  C  C19  1  0.71900000  0.60920000  0.93540000  1
  C  C20  1  0.78100000  0.06460000  0.39080000  1
  C  C21  1  0.28100000  0.39080000  0.06460000  1
  C  C22  1  0.88400000  0.88790000  0.44830000  1
  C  C23  1  0.38400000  0.44830000  0.88790000  1
  C  C24  1  0.84300000  0.95500000  0.36620000  1
  C  C25  1  0.34300000  0.36620000  0.95500000  1
  C  C26  1  0.99700000  0.72600000  0.51920000  1
  C  C27  1  0.49700000  0.51920000  0.72600000  1
  C  C28  1  0.94700000  0.79510000  0.42990000  1
  C  C29  1  0.44700000  0.42990000  0.79510000  1
  C  C30  1  0.85100000  0.93280000  0.27120000  1
  C  C31  1  0.35100000  0.27120000  0.93280000  1
  C  C32  1  0.78300000  0.99560000  0.18560000  1
  C  C33  1  0.28300000  0.18560000  0.99560000  1
  C  C34  1  0.97100000  0.76830000  0.32590000  1
  C  C35  1  0.47100000  0.32590000  0.76830000  1
  C  C36  1  0.92400000  0.83350000  0.25750000  1
  C  C37  1  0.42400000  0.25750000  0.83350000  1
  C  C38  1  0.47100000  0.69350000  0.33690000  1
  C  C39  1  0.97100000  0.33690000  0.69350000  1
  H  H40  1  0.06080000  0.18540000  0.80780000  1
  H  H41  1  0.56080000  0.80780000  0.18540000  1
  H  H42  1  0.13360000  0.09230000  0.48670000  1
  H  H43  1  0.63360000  0.48670000  0.09230000  1
  H  H44  1  0.86640000  0.90770000  0.51330000  1
  H  H45  1  0.36640000  0.51330000  0.90770000  1
  H  H46  1  0.93920000  0.81460000  0.19220000  1
  H  H47  1  0.43920000  0.19220000  0.81460000  1
  O  O48  1  0.52020000  0.37250000  0.59150000  1
  O  O49  1  0.02020000  0.59150000  0.37250000  1
  O  O50  1  0.57550000  0.21650000  0.65230000  1
  O  O51  1  0.07550000  0.65230000  0.21650000  1
  O  O52  1  0.10630000  0.96650000  0.87830000  1
  O  O53  1  0.60630000  0.87830000  0.96650000  1
  O  O54  1  0.36300000  0.99920000  0.82180000  1
  O  O55  1  0.86300000  0.82180000  0.99920000  1
  O  O56  1  0.84650000  0.29410000  0.47070000  1
  O  O57  1  0.34650000  0.47070000  0.29410000  1
  O  O58  1  0.11070000  0.30710000  0.42910000  1
  O  O59  1  0.61070000  0.42910000  0.30710000  1
  O  O60  1  0.71840000  0.07620000  0.48600000  1
  O  O61  1  0.21840000  0.48600000  0.07620000  1
  O  O62  1  0.20350000  0.87720000  0.66860000  1
  O  O63  1  0.70350000  0.66860000  0.87720000  1
  O  O64  1  0.79650000  0.12280000  0.33140000  1
  O  O65  1  0.29650000  0.33140000  0.12280000  1
  O  O66  1  0.28160000  0.92380000  0.51400000  1
  O  O67  1  0.78160000  0.51400000  0.92380000  1
  O  O68  1  0.88930000  0.69290000  0.57090000  1
  O  O69  1  0.38930000  0.57090000  0.69290000  1
  O  O70  1  0.15350000  0.70590000  0.52930000  1
  O  O71  1  0.65350000  0.52930000  0.70590000  1
  O  O72  1  0.63700000  0.00080000  0.17820000  1
  O  O73  1  0.13700000  0.17820000  0.00080000  1
  O  O74  1  0.89370000  0.03350000  0.12170000  1
  O  O75  1  0.39370000  0.12170000  0.03350000  1
  O  O76  1  0.42450000  0.78350000  0.34770000  1
  O  O77  1  0.92450000  0.34770000  0.78350000  1
  O  O78  1  0.47980000  0.62750000  0.40850000  1
  O  O79  1  0.97980000  0.40850000  0.62750000  1
  Zn  Zn80  1  0.86570000  0.93738000  0.89082000  1
  Zn  Zn81  1  0.36570000  0.89082000  0.93738000  1
  Zn  Zn82  1  0.64330000  0.21357000  0.50323000  1
  Zn  Zn83  1  0.14330000  0.50323000  0.21357000  1
  Zn  Zn84  1  0.35670000  0.78643000  0.49677000  1
  Zn  Zn85  1  0.85670000  0.49677000  0.78643000  1
  Zn  Zn86  1  0.13430000  0.06262000  0.10918000  1
  Zn  Zn87  1  0.63430000  0.10918000  0.06262000  1
