# generated using pymatgen
data_FeH13C20N2O5
_symmetry_space_group_name_H-M   'P 1'
_cell_length_a   9.02100000
_cell_length_b   13.84100000
_cell_length_c   30.18300000
_cell_angle_alpha   90.00000000
_cell_angle_beta   90.00000000
_cell_angle_gamma   90.00000000
_symmetry_Int_Tables_number   1
_chemical_formula_structural   FeH13C20N2O5
_chemical_formula_sum   'Fe8 H104 C160 N16 O40'
_cell_volume   3768.63914796
_cell_formula_units_Z   8
loop_
 _symmetry_equiv_pos_site_id
 _symmetry_equiv_pos_as_xyz
  1  'x, y, z'
loop_
 _atom_site_type_symbol
 _atom_site_label
 _atom_site_symmetry_multiplicity
 _atom_site_fract_x
 _atom_site_fract_y
 _atom_site_fract_z
 _atom_site_occupancy
  Fe  Fe0  1  0.19364000  0.38286000  0.78520000  1
  Fe  Fe1  1  0.19364000  0.61714000  0.28520000  1
  Fe  Fe2  1  0.30636000  0.38286000  0.28520000  1
  Fe  Fe3  1  0.30636000  0.61714000  0.78520000  1
  Fe  Fe4  1  0.69364000  0.38286000  0.21480000  1
  Fe  Fe5  1  0.69364000  0.61714000  0.71480000  1
  Fe  Fe6  1  0.80636000  0.38286000  0.71480000  1
  Fe  Fe7  1  0.80636000  0.61714000  0.21480000  1
  H  H8  1  0.00000000  0.36850000  0.25000000  1
  H  H9  1  0.00000000  0.63150000  0.75000000  1
  H  H10  1  0.00330000  0.26990000  0.61580000  1
  H  H11  1  0.00330000  0.73010000  0.11580000  1
  H  H12  1  0.02150000  0.37020000  0.08200000  1
  H  H13  1  0.02150000  0.62980000  0.58200000  1
  H  H14  1  0.05880000  0.00080000  0.62680000  1
  H  H15  1  0.05880000  0.99920000  0.12680000  1
  H  H16  1  0.06810000  0.04080000  0.30420000  1
  H  H17  1  0.06810000  0.95920000  0.80420000  1
  H  H18  1  0.08170000  0.27420000  0.54300000  1
  H  H19  1  0.08170000  0.72580000  0.04300000  1
  H  H20  1  0.10150000  0.36750000  0.15500000  1
  H  H21  1  0.10150000  0.63250000  0.65500000  1
  H  H22  1  0.11560000  0.06220000  0.55820000  1
  H  H23  1  0.11560000  0.93780000  0.05820000  1
  H  H24  1  0.16150000  0.16090000  0.25190000  1
  H  H25  1  0.16150000  0.83910000  0.75190000  1
  H  H26  1  0.16400000  0.11970000  0.49780000  1
  H  H27  1  0.16400000  0.88030000  0.99780000  1
  H  H28  1  0.18040000  0.36150000  0.92900000  1
  H  H29  1  0.18040000  0.63850000  0.42900000  1
  H  H30  1  0.18810000  0.27280000  0.36930000  1
  H  H31  1  0.18810000  0.72720000  0.86930000  1
  H  H32  1  0.22430000  0.17970000  0.42960000  1
  H  H33  1  0.22430000  0.82030000  0.92960000  1
  H  H34  1  0.25000000  0.50000000  0.04430000  1
  H  H35  1  0.25000000  0.50000000  0.54430000  1
  H  H36  1  0.27570000  0.17970000  0.92960000  1
  H  H37  1  0.27570000  0.82030000  0.42960000  1
  H  H38  1  0.31190000  0.27280000  0.86930000  1
  H  H39  1  0.31190000  0.72720000  0.36930000  1
  H  H40  1  0.31960000  0.36150000  0.42900000  1
  H  H41  1  0.31960000  0.63850000  0.92900000  1
  H  H42  1  0.33600000  0.11970000  0.99780000  1
  H  H43  1  0.33600000  0.88030000  0.49780000  1
  H  H44  1  0.33850000  0.16090000  0.75190000  1
  H  H45  1  0.33850000  0.83910000  0.25190000  1
  H  H46  1  0.38440000  0.06220000  0.05820000  1
  H  H47  1  0.38440000  0.93780000  0.55820000  1
  H  H48  1  0.39850000  0.36750000  0.65500000  1
  H  H49  1  0.39850000  0.63250000  0.15500000  1
  H  H50  1  0.41830000  0.27420000  0.04300000  1
  H  H51  1  0.41830000  0.72580000  0.54300000  1
  H  H52  1  0.43190000  0.04080000  0.80420000  1
  H  H53  1  0.43190000  0.95920000  0.30420000  1
  H  H54  1  0.44120000  0.00080000  0.12680000  1
  H  H55  1  0.44120000  0.99920000  0.62680000  1
  H  H56  1  0.47850000  0.37020000  0.58200000  1
  H  H57  1  0.47850000  0.62980000  0.08200000  1
  H  H58  1  0.49670000  0.26990000  0.11580000  1
  H  H59  1  0.49670000  0.73010000  0.61580000  1
  H  H60  1  0.50000000  0.36850000  0.75000000  1
  H  H61  1  0.50000000  0.63150000  0.25000000  1
  H  H62  1  0.50330000  0.26990000  0.38420000  1
  H  H63  1  0.50330000  0.73010000  0.88420000  1
  H  H64  1  0.52150000  0.37020000  0.91800000  1
  H  H65  1  0.52150000  0.62980000  0.41800000  1
  H  H66  1  0.55880000  0.00080000  0.37320000  1
  H  H67  1  0.55880000  0.99920000  0.87320000  1
  H  H68  1  0.56810000  0.04080000  0.69580000  1
  H  H69  1  0.56810000  0.95920000  0.19580000  1
  H  H70  1  0.58170000  0.27420000  0.45700000  1
  H  H71  1  0.58170000  0.72580000  0.95700000  1
  H  H72  1  0.60150000  0.36750000  0.84500000  1
  H  H73  1  0.60150000  0.63250000  0.34500000  1
  H  H74  1  0.61560000  0.06220000  0.44180000  1
  H  H75  1  0.61560000  0.93780000  0.94180000  1
  H  H76  1  0.66150000  0.16090000  0.74810000  1
  H  H77  1  0.66150000  0.83910000  0.24810000  1
  H  H78  1  0.66400000  0.11970000  0.50220000  1
  H  H79  1  0.66400000  0.88030000  0.00220000  1
  H  H80  1  0.68040000  0.36150000  0.07100000  1
  H  H81  1  0.68040000  0.63850000  0.57100000  1
  H  H82  1  0.68810000  0.27280000  0.63070000  1
  H  H83  1  0.68810000  0.72720000  0.13070000  1
  H  H84  1  0.72430000  0.17970000  0.57040000  1
  H  H85  1  0.72430000  0.82030000  0.07040000  1
  H  H86  1  0.75000000  0.50000000  0.45570000  1
  H  H87  1  0.75000000  0.50000000  0.95570000  1
  H  H88  1  0.77570000  0.17970000  0.07040000  1
  H  H89  1  0.77570000  0.82030000  0.57040000  1
  H  H90  1  0.81190000  0.27280000  0.13070000  1
  H  H91  1  0.81190000  0.72720000  0.63070000  1
  H  H92  1  0.81960000  0.36150000  0.57100000  1
  H  H93  1  0.81960000  0.63850000  0.07100000  1
  H  H94  1  0.83600000  0.11970000  0.00220000  1
  H  H95  1  0.83600000  0.88030000  0.50220000  1
  H  H96  1  0.83850000  0.16090000  0.24810000  1
  H  H97  1  0.83850000  0.83910000  0.74810000  1
  H  H98  1  0.88440000  0.06220000  0.94180000  1
  H  H99  1  0.88440000  0.93780000  0.44180000  1
  H  H100  1  0.89850000  0.36750000  0.34500000  1
  H  H101  1  0.89850000  0.63250000  0.84500000  1
  H  H102  1  0.91830000  0.27420000  0.95700000  1
  H  H103  1  0.91830000  0.72580000  0.45700000  1
  H  H104  1  0.93190000  0.04080000  0.19580000  1
  H  H105  1  0.93190000  0.95920000  0.69580000  1
  H  H106  1  0.94120000  0.00080000  0.87320000  1
  H  H107  1  0.94120000  0.99920000  0.37320000  1
  H  H108  1  0.97850000  0.37020000  0.41800000  1
  H  H109  1  0.97850000  0.62980000  0.91800000  1
  H  H110  1  0.99670000  0.26990000  0.88420000  1
  H  H111  1  0.99670000  0.73010000  0.38420000  1
  C  C112  1  0.00000000  0.43570000  0.25000000  1
  C  C113  1  0.00000000  0.56430000  0.75000000  1
  C  C114  1  0.01420000  0.02480000  0.10164000  1
  C  C115  1  0.01420000  0.97520000  0.60164000  1
  C  C116  1  0.01600000  0.02060000  0.47761000  1
  C  C117  1  0.01600000  0.97940000  0.97761000  1
  C  C118  1  0.04700000  0.01230000  0.56013000  1
  C  C119  1  0.04700000  0.98770000  0.06013000  1
  C  C120  1  0.08340000  0.09880000  0.39473000  1
  C  C121  1  0.08340000  0.90120000  0.89473000  1
  C  C122  1  0.09840000  0.29150000  0.60912000  1
  C  C123  1  0.09840000  0.70850000  0.10912000  1
  C  C124  1  0.10420000  0.10180000  0.31119000  1
  C  C125  1  0.10420000  0.89820000  0.81119000  1
  C  C126  1  0.11780000  0.35150000  0.08885000  1
  C  C127  1  0.11780000  0.64850000  0.58885000  1
  C  C128  1  0.11800000  0.09450000  0.47275000  1
  C  C129  1  0.11800000  0.90550000  0.97275000  1
  C  C130  1  0.13330000  0.32610000  0.68996000  1
  C  C131  1  0.13330000  0.67390000  0.18996000  1
  C  C132  1  0.14520000  0.29390000  0.56554000  1
  C  C133  1  0.14520000  0.70610000  0.06554000  1
  C  C134  1  0.15270000  0.13170000  0.43191000  1
  C  C135  1  0.15270000  0.86830000  0.93191000  1
  C  C136  1  0.15380000  0.16930000  0.28236000  1
  C  C137  1  0.15380000  0.83070000  0.78236000  1
  C  C138  1  0.16630000  0.34940000  0.13248000  1
  C  C139  1  0.16630000  0.65060000  0.63248000  1
  C  C140  1  0.16920000  0.23000000  0.34622000  1
  C  C141  1  0.16920000  0.77000000  0.84622000  1
  C  C142  1  0.19200000  0.32120000  0.64317000  1
  C  C143  1  0.19200000  0.67880000  0.14317000  1
  C  C144  1  0.20900000  0.41690000  0.94419000  1
  C  C145  1  0.20900000  0.58310000  0.44419000  1
  C  C146  1  0.21120000  0.41740000  0.98968000  1
  C  C147  1  0.21120000  0.58260000  0.48968000  1
  C  C148  1  0.21570000  0.32510000  0.05567000  1
  C  C149  1  0.21570000  0.67490000  0.55567000  1
  C  C150  1  0.25000000  0.50000000  0.01346000  1
  C  C151  1  0.25000000  0.50000000  0.37091000  1
  C  C152  1  0.25000000  0.50000000  0.42078000  1
  C  C153  1  0.25000000  0.50000000  0.51346000  1
  C  C154  1  0.25000000  0.50000000  0.87091000  1
  C  C155  1  0.25000000  0.50000000  0.92078000  1
  C  C156  1  0.28430000  0.32510000  0.55567000  1
  C  C157  1  0.28430000  0.67490000  0.05567000  1
  C  C158  1  0.28880000  0.41740000  0.48968000  1
  C  C159  1  0.28880000  0.58260000  0.98968000  1
  C  C160  1  0.29100000  0.41690000  0.44419000  1
  C  C161  1  0.29100000  0.58310000  0.94419000  1
  C  C162  1  0.30800000  0.32120000  0.14317000  1
  C  C163  1  0.30800000  0.67880000  0.64317000  1
  C  C164  1  0.33080000  0.23000000  0.84622000  1
  C  C165  1  0.33080000  0.77000000  0.34622000  1
  C  C166  1  0.33370000  0.34940000  0.63248000  1
  C  C167  1  0.33370000  0.65060000  0.13248000  1
  C  C168  1  0.34620000  0.16930000  0.78236000  1
  C  C169  1  0.34620000  0.83070000  0.28236000  1
  C  C170  1  0.34730000  0.13170000  0.93191000  1
  C  C171  1  0.34730000  0.86830000  0.43191000  1
  C  C172  1  0.35480000  0.29390000  0.06554000  1
  C  C173  1  0.35480000  0.70610000  0.56554000  1
  C  C174  1  0.36670000  0.32610000  0.18996000  1
  C  C175  1  0.36670000  0.67390000  0.68996000  1
  C  C176  1  0.38200000  0.09450000  0.97275000  1
  C  C177  1  0.38200000  0.90550000  0.47275000  1
  C  C178  1  0.38220000  0.35150000  0.58885000  1
  C  C179  1  0.38220000  0.64850000  0.08885000  1
  C  C180  1  0.39580000  0.10180000  0.81119000  1
  C  C181  1  0.39580000  0.89820000  0.31119000  1
  C  C182  1  0.40160000  0.29150000  0.10912000  1
  C  C183  1  0.40160000  0.70850000  0.60912000  1
  C  C184  1  0.41660000  0.09880000  0.89473000  1
  C  C185  1  0.41660000  0.90120000  0.39473000  1
  C  C186  1  0.45300000  0.01230000  0.06013000  1
  C  C187  1  0.45300000  0.98770000  0.56013000  1
  C  C188  1  0.48400000  0.02060000  0.97761000  1
  C  C189  1  0.48400000  0.97940000  0.47761000  1
  C  C190  1  0.48580000  0.02480000  0.60164000  1
  C  C191  1  0.48580000  0.97520000  0.10164000  1
  C  C192  1  0.50000000  0.43570000  0.75000000  1
  C  C193  1  0.50000000  0.56430000  0.25000000  1
  C  C194  1  0.51420000  0.02480000  0.89836000  1
  C  C195  1  0.51420000  0.97520000  0.39836000  1
  C  C196  1  0.51600000  0.02060000  0.52239000  1
  C  C197  1  0.51600000  0.97940000  0.02239000  1
  C  C198  1  0.54700000  0.01230000  0.43987000  1
  C  C199  1  0.54700000  0.98770000  0.93987000  1
  C  C200  1  0.58340000  0.09880000  0.60527000  1
  C  C201  1  0.58340000  0.90120000  0.10527000  1
  C  C202  1  0.59840000  0.29150000  0.39088000  1
  C  C203  1  0.59840000  0.70850000  0.89088000  1
  C  C204  1  0.60420000  0.10180000  0.68881000  1
  C  C205  1  0.60420000  0.89820000  0.18881000  1
  C  C206  1  0.61780000  0.35150000  0.91115000  1
  C  C207  1  0.61780000  0.64850000  0.41115000  1
  C  C208  1  0.61800000  0.09450000  0.52725000  1
  C  C209  1  0.61800000  0.90550000  0.02725000  1
  C  C210  1  0.63330000  0.32610000  0.31004000  1
  C  C211  1  0.63330000  0.67390000  0.81004000  1
  C  C212  1  0.64520000  0.29390000  0.43446000  1
  C  C213  1  0.64520000  0.70610000  0.93446000  1
  C  C214  1  0.65270000  0.13170000  0.56809000  1
  C  C215  1  0.65270000  0.86830000  0.06809000  1
  C  C216  1  0.65380000  0.16930000  0.71764000  1
  C  C217  1  0.65380000  0.83070000  0.21764000  1
  C  C218  1  0.66630000  0.34940000  0.86752000  1
  C  C219  1  0.66630000  0.65060000  0.36752000  1
  C  C220  1  0.66920000  0.23000000  0.65378000  1
  C  C221  1  0.66920000  0.77000000  0.15378000  1
  C  C222  1  0.69200000  0.32120000  0.35683000  1
  C  C223  1  0.69200000  0.67880000  0.85683000  1
  C  C224  1  0.70900000  0.41690000  0.05581000  1
  C  C225  1  0.70900000  0.58310000  0.55581000  1
  C  C226  1  0.71120000  0.41740000  0.01032000  1
  C  C227  1  0.71120000  0.58260000  0.51032000  1
  C  C228  1  0.71570000  0.32510000  0.94433000  1
  C  C229  1  0.71570000  0.67490000  0.44433000  1
  C  C230  1  0.75000000  0.50000000  0.07922000  1
  C  C231  1  0.75000000  0.50000000  0.12909000  1
  C  C232  1  0.75000000  0.50000000  0.48654000  1
  C  C233  1  0.75000000  0.50000000  0.57922000  1
  C  C234  1  0.75000000  0.50000000  0.62909000  1
  C  C235  1  0.75000000  0.50000000  0.98654000  1
  C  C236  1  0.78430000  0.32510000  0.44433000  1
  C  C237  1  0.78430000  0.67490000  0.94433000  1
  C  C238  1  0.78880000  0.41740000  0.51032000  1
  C  C239  1  0.78880000  0.58260000  0.01032000  1
  C  C240  1  0.79100000  0.41690000  0.55581000  1
  C  C241  1  0.79100000  0.58310000  0.05581000  1
  C  C242  1  0.80800000  0.32120000  0.85683000  1
  C  C243  1  0.80800000  0.67880000  0.35683000  1
  C  C244  1  0.83080000  0.23000000  0.15378000  1
  C  C245  1  0.83080000  0.77000000  0.65378000  1
  C  C246  1  0.83370000  0.34940000  0.36752000  1
  C  C247  1  0.83370000  0.65060000  0.86752000  1
  C  C248  1  0.84620000  0.16930000  0.21764000  1
  C  C249  1  0.84620000  0.83070000  0.71764000  1
  C  C250  1  0.84730000  0.13170000  0.06809000  1
  C  C251  1  0.84730000  0.86830000  0.56809000  1
  C  C252  1  0.85480000  0.29390000  0.93446000  1
  C  C253  1  0.85480000  0.70610000  0.43446000  1
  C  C254  1  0.86670000  0.32610000  0.81004000  1
  C  C255  1  0.86670000  0.67390000  0.31004000  1
  C  C256  1  0.88200000  0.09450000  0.02725000  1
  C  C257  1  0.88200000  0.90550000  0.52725000  1
  C  C258  1  0.88220000  0.35150000  0.41115000  1
  C  C259  1  0.88220000  0.64850000  0.91115000  1
  C  C260  1  0.89580000  0.10180000  0.18881000  1
  C  C261  1  0.89580000  0.89820000  0.68881000  1
  C  C262  1  0.90160000  0.29150000  0.89088000  1
  C  C263  1  0.90160000  0.70850000  0.39088000  1
  C  C264  1  0.91660000  0.09880000  0.10527000  1
  C  C265  1  0.91660000  0.90120000  0.60527000  1
  C  C266  1  0.95300000  0.01230000  0.93987000  1
  C  C267  1  0.95300000  0.98770000  0.43987000  1
  C  C268  1  0.98400000  0.02060000  0.02239000  1
  C  C269  1  0.98400000  0.97940000  0.52239000  1
  C  C270  1  0.98580000  0.02480000  0.39836000  1
  C  C271  1  0.98580000  0.97520000  0.89836000  1
  N  N272  1  0.11740000  0.14080000  0.35236000  1
  N  N273  1  0.11740000  0.85920000  0.85236000  1
  N  N274  1  0.19080000  0.25110000  0.30449000  1
  N  N275  1  0.19080000  0.74890000  0.80449000  1
  N  N276  1  0.30920000  0.25110000  0.80449000  1
  N  N277  1  0.30920000  0.74890000  0.30449000  1
  N  N278  1  0.38260000  0.14080000  0.85236000  1
  N  N279  1  0.38260000  0.85920000  0.35236000  1
  N  N280  1  0.61740000  0.14080000  0.64764000  1
  N  N281  1  0.61740000  0.85920000  0.14764000  1
  N  N282  1  0.69080000  0.25110000  0.69551000  1
  N  N283  1  0.69080000  0.74890000  0.19551000  1
  N  N284  1  0.80920000  0.25110000  0.19551000  1
  N  N285  1  0.80920000  0.74890000  0.69551000  1
  N  N286  1  0.88260000  0.14080000  0.14764000  1
  N  N287  1  0.88260000  0.85920000  0.64764000  1
  O  O288  1  0.00060000  0.30780000  0.80381000  1
  O  O289  1  0.00060000  0.69220000  0.30381000  1
  O  O290  1  0.10090000  0.47534000  0.27182000  1
  O  O291  1  0.10090000  0.52466000  0.77182000  1
  O  O292  1  0.16990000  0.33270000  0.01138000  1
  O  O293  1  0.16990000  0.66730000  0.51138000  1
  O  O294  1  0.21470000  0.42258000  0.85194000  1
  O  O295  1  0.21470000  0.57742000  0.35194000  1
  O  O296  1  0.22370000  0.34900000  0.71960000  1
  O  O297  1  0.22370000  0.65100000  0.21960000  1
  O  O298  1  0.27630000  0.34900000  0.21960000  1
  O  O299  1  0.27630000  0.65100000  0.71960000  1
  O  O300  1  0.28530000  0.42258000  0.35194000  1
  O  O301  1  0.28530000  0.57742000  0.85194000  1
  O  O302  1  0.33010000  0.33270000  0.51138000  1
  O  O303  1  0.33010000  0.66730000  0.01138000  1
  O  O304  1  0.39910000  0.47534000  0.77182000  1
  O  O305  1  0.39910000  0.52466000  0.27182000  1
  O  O306  1  0.49940000  0.30780000  0.30381000  1
  O  O307  1  0.49940000  0.69220000  0.80381000  1
  O  O308  1  0.50060000  0.30780000  0.19619000  1
  O  O309  1  0.50060000  0.69220000  0.69619000  1
  O  O310  1  0.60090000  0.47534000  0.72818000  1
  O  O311  1  0.60090000  0.52466000  0.22818000  1
  O  O312  1  0.66990000  0.33270000  0.98862000  1
  O  O313  1  0.66990000  0.66730000  0.48862000  1
  O  O314  1  0.71470000  0.42258000  0.14806000  1
  O  O315  1  0.71470000  0.57742000  0.64806000  1
  O  O316  1  0.72370000  0.34900000  0.28040000  1
  O  O317  1  0.72370000  0.65100000  0.78040000  1
  O  O318  1  0.77630000  0.34900000  0.78040000  1
  O  O319  1  0.77630000  0.65100000  0.28040000  1
  O  O320  1  0.78530000  0.42258000  0.64806000  1
  O  O321  1  0.78530000  0.57742000  0.14806000  1
  O  O322  1  0.83010000  0.33270000  0.48862000  1
  O  O323  1  0.83010000  0.66730000  0.98862000  1
  O  O324  1  0.89910000  0.47534000  0.22818000  1
  O  O325  1  0.89910000  0.52466000  0.72818000  1
  O  O326  1  0.99940000  0.30780000  0.69619000  1
  O  O327  1  0.99940000  0.69220000  0.19619000  1
