# generated using pymatgen
data_CdH18C26N4O5
_symmetry_space_group_name_H-M   'P 1'
_cell_length_a   9.07200000
_cell_length_b   13.14000000
_cell_length_c   30.70000000
_cell_angle_alpha   92.72000000
_cell_angle_beta   89.80000000
_cell_angle_gamma   89.99000000
_symmetry_Int_Tables_number   1
_chemical_formula_structural   CdH18C26N4O5
_chemical_formula_sum   'Cd4 H72 C104 N16 O20'
_cell_volume   3655.48113137
_cell_formula_units_Z   4
loop_
 _symmetry_equiv_pos_site_id
 _symmetry_equiv_pos_as_xyz
  1  'x, y, z'
loop_
 _atom_site_type_symbol
 _atom_site_label
 _atom_site_symmetry_multiplicity
 _atom_site_fract_x
 _atom_site_fract_y
 _atom_site_fract_z
 _atom_site_occupancy
  Cd  Cd0  1  0.13557000  0.57848000  0.96304000  1
  Cd  Cd1  1  0.36497000  0.57854000  0.46289000  1
  Cd  Cd2  1  0.63503000  0.42146000  0.53711000  1
  Cd  Cd3  1  0.86443000  0.42152000  0.03696000  1
  H  H4  1  0.00560000  0.35570000  0.80240000  1
  H  H5  1  0.00650000  0.33160000  0.54110000  1
  H  H6  1  0.00760000  0.43390000  0.87230000  1
  H  H7  1  0.01040000  0.78290000  0.01130000  1
  H  H8  1  0.01200000  0.85250000  0.29550000  1
  H  H9  1  0.06240000  0.78450000  0.36330000  1
  H  H10  1  0.10680000  0.23380000  0.41700000  1
  H  H11  1  0.10730000  0.82740000  0.48740000  1
  H  H12  1  0.11330000  0.34130000  0.10160000  1
  H  H13  1  0.13530000  0.02960000  0.59070000  1
  H  H14  1  0.13640000  0.59340000  0.80780000  1
  H  H15  1  0.13990000  0.07750000  0.99650000  1
  H  H16  1  0.15620000  0.47520000  0.53150000  1
  H  H17  1  0.18990000  0.65550000  0.73940000  1
  H  H18  1  0.19610000  0.84470000  0.65870000  1
  H  H19  1  0.20490000  0.76880000  0.58800000  1
  H  H20  1  0.24010000  0.19840000  0.61500000  1
  H  H21  1  0.24990000  0.37950000  0.41100000  1
  H  H22  1  0.25320000  0.38040000  0.91130000  1
  H  H23  1  0.26070000  0.20000000  0.11450000  1
  H  H24  1  0.29470000  0.76940000  0.08810000  1
  H  H25  1  0.30390000  0.84270000  0.15920000  1
  H  H26  1  0.30870000  0.65450000  0.23910000  1
  H  H27  1  0.34430000  0.47480000  0.03170000  1
  H  H28  1  0.35900000  0.07770000  0.49710000  1
  H  H29  1  0.36420000  0.03120000  0.09030000  1
  H  H30  1  0.36430000  0.59320000  0.30750000  1
  H  H31  1  0.38480000  0.34320000  0.60150000  1
  H  H32  1  0.39200000  0.82600000  0.98730000  1
  H  H33  1  0.39550000  0.23410000  0.91730000  1
  H  H34  1  0.43790000  0.78590000  0.86270000  1
  H  H35  1  0.48510000  0.85300000  0.79510000  1
  H  H36  1  0.48730000  0.33050000  0.04160000  1
  H  H37  1  0.49230000  0.78180000  0.51190000  1
  H  H38  1  0.49320000  0.35320000  0.30260000  1
  H  H39  1  0.49420000  0.43430000  0.37220000  1
  H  H40  1  0.50580000  0.56570000  0.62780000  1
  H  H41  1  0.50680000  0.64680000  0.69740000  1
  H  H42  1  0.50770000  0.21820000  0.48810000  1
  H  H43  1  0.51270000  0.66950000  0.95840000  1
  H  H44  1  0.51490000  0.14700000  0.20490000  1
  H  H45  1  0.56210000  0.21410000  0.13730000  1
  H  H46  1  0.60450000  0.76590000  0.08270000  1
  H  H47  1  0.60800000  0.17400000  0.01270000  1
  H  H48  1  0.61520000  0.65680000  0.39850000  1
  H  H49  1  0.63570000  0.40680000  0.69250000  1
  H  H50  1  0.63580000  0.96880000  0.90970000  1
  H  H51  1  0.64100000  0.92230000  0.50290000  1
  H  H52  1  0.65570000  0.52520000  0.96830000  1
  H  H53  1  0.69130000  0.34550000  0.76090000  1
  H  H54  1  0.69610000  0.15730000  0.84080000  1
  H  H55  1  0.70530000  0.23060000  0.91190000  1
  H  H56  1  0.73930000  0.80000000  0.88550000  1
  H  H57  1  0.74680000  0.61960000  0.08870000  1
  H  H58  1  0.75010000  0.62050000  0.58900000  1
  H  H59  1  0.75990000  0.80160000  0.38500000  1
  H  H60  1  0.79510000  0.23120000  0.41200000  1
  H  H61  1  0.80390000  0.15530000  0.34130000  1
  H  H62  1  0.81010000  0.34450000  0.26060000  1
  H  H63  1  0.84380000  0.52480000  0.46850000  1
  H  H64  1  0.86010000  0.92250000  0.00350000  1
  H  H65  1  0.86360000  0.40660000  0.19220000  1
  H  H66  1  0.86470000  0.97040000  0.40930000  1
  H  H67  1  0.88670000  0.65870000  0.89840000  1
  H  H68  1  0.89270000  0.17260000  0.51260000  1
  H  H69  1  0.89320000  0.76620000  0.58300000  1
  H  H70  1  0.93760000  0.21550000  0.63670000  1
  H  H71  1  0.98800000  0.14750000  0.70450000  1
  H  H72  1  0.98960000  0.21710000  0.98870000  1
  H  H73  1  0.99240000  0.56610000  0.12770000  1
  H  H74  1  0.99350000  0.66840000  0.45890000  1
  H  H75  1  0.99440000  0.64430000  0.19760000  1
  C  C76  1  0.04080000  0.26720000  0.47990000  1
  C  C77  1  0.04740000  0.21400000  0.01430000  1
  C  C78  1  0.05290000  0.82240000  0.51370000  1
  C  C79  1  0.05350000  0.62380000  0.13370000  1
  C  C80  1  0.05480000  0.66980000  0.17520000  1
  C  C81  1  0.05570000  0.33990000  0.51420000  1
  C  C82  1  0.08330000  0.80020000  0.29810000  1
  C  C83  1  0.11450000  0.28220000  0.44090000  1
  C  C84  1  0.11480000  0.75980000  0.33810000  1
  C  C85  1  0.11800000  0.28640000  0.08040000  1
  C  C86  1  0.13270000  0.61730000  0.05480000  1
  C  C87  1  0.13570000  0.13010000  0.01880000  1
  C  C88  1  0.14020000  0.66070000  0.10080000  1
  C  C89  1  0.14470000  0.42580000  0.50820000  1
  C  C90  1  0.14500000  0.75330000  0.18380000  1
  C  C91  1  0.16150000  0.76030000  0.26190000  1
  C  C92  1  0.18220000  0.03680000  0.56330000  1
  C  C93  1  0.19940000  0.36910000  0.43760000  1
  C  C94  1  0.20760000  0.64590000  0.80530000  1
  C  C95  1  0.20760000  0.20260000  0.08800000  1
  C  C96  1  0.21890000  0.12340000  0.05660000  1
  C  C97  1  0.21960000  0.68500000  0.34240000  1
  C  C98  1  0.23390000  0.74370000  0.11030000  1
  C  C99  1  0.23770000  0.78840000  0.15230000  1
  C  C100  1  0.23790000  0.68330000  0.76470000  1
  C  C101  1  0.24410000  0.64600000  0.88630000  1
  C  C102  1  0.25710000  0.64650000  0.38620000  1
  C  C103  1  0.26140000  0.78960000  0.65210000  1
  C  C104  1  0.26160000  0.68250000  0.26460000  1
  C  C105  1  0.26560000  0.74350000  0.61020000  1
  C  C106  1  0.27970000  0.12360000  0.55660000  1
  C  C107  1  0.28060000  0.68430000  0.84240000  1
  C  C108  1  0.29190000  0.20210000  0.58820000  1
  C  C109  1  0.29290000  0.64550000  0.30500000  1
  C  C110  1  0.30250000  0.36970000  0.93800000  1
  C  C111  1  0.31680000  0.03750000  0.06300000  1
  C  C112  1  0.33760000  0.76090000  0.76150000  1
  C  C113  1  0.35230000  0.75450000  0.68340000  1
  C  C114  1  0.35510000  0.42510000  0.00840000  1
  C  C115  1  0.35740000  0.66110000  0.60070000  1
  C  C116  1  0.36270000  0.61760000  0.55490000  1
  C  C117  1  0.36280000  0.13050000  0.51930000  1
  C  C118  1  0.38160000  0.28750000  0.58060000  1
  C  C119  1  0.38530000  0.76060000  0.83780000  1
  C  C120  1  0.38710000  0.28220000  0.94120000  1
  C  C121  1  0.41450000  0.80020000  0.79780000  1
  C  C122  1  0.44100000  0.33950000  0.01430000  1
  C  C123  1  0.44510000  0.67090000  0.67510000  1
  C  C124  1  0.44540000  0.62380000  0.63370000  1
  C  C125  1  0.44650000  0.82180000  0.01350000  1
  C  C126  1  0.45150000  0.21430000  0.51410000  1
  C  C127  1  0.45890000  0.26670000  0.98010000  1
  C  C128  1  0.54110000  0.73330000  0.01990000  1
  C  C129  1  0.54850000  0.78570000  0.48590000  1
  C  C130  1  0.55350000  0.17820000  0.98650000  1
  C  C131  1  0.55460000  0.37620000  0.36630000  1
  C  C132  1  0.55490000  0.32910000  0.32490000  1
  C  C133  1  0.55900000  0.66050000  0.98570000  1
  C  C134  1  0.58550000  0.19980000  0.20220000  1
  C  C135  1  0.61290000  0.71780000  0.05880000  1
  C  C136  1  0.61470000  0.23940000  0.16220000  1
  C  C137  1  0.61840000  0.71250000  0.41940000  1
  C  C138  1  0.63720000  0.86950000  0.48070000  1
  C  C139  1  0.63730000  0.38240000  0.44510000  1
  C  C140  1  0.64260000  0.33890000  0.39930000  1
  C  C141  1  0.64490000  0.57490000  0.99160000  1
  C  C142  1  0.64770000  0.24550000  0.31660000  1
  C  C143  1  0.66240000  0.23910000  0.23850000  1
  C  C144  1  0.68320000  0.96250000  0.93700000  1
  C  C145  1  0.69750000  0.63030000  0.06200000  1
  C  C146  1  0.70710000  0.35450000  0.69500000  1
  C  C147  1  0.70810000  0.79790000  0.41180000  1
  C  C148  1  0.71940000  0.31570000  0.15760000  1
  C  C149  1  0.72030000  0.87640000  0.44340000  1
  C  C150  1  0.73440000  0.25650000  0.38980000  1
  C  C151  1  0.73840000  0.31750000  0.73540000  1
  C  C152  1  0.73860000  0.21040000  0.34790000  1
  C  C153  1  0.74290000  0.35350000  0.61380000  1
  C  C154  1  0.75590000  0.35400000  0.11370000  1
  C  C155  1  0.76210000  0.31670000  0.23530000  1
  C  C156  1  0.76230000  0.21160000  0.84770000  1
  C  C157  1  0.76610000  0.25630000  0.88970000  1
  C  C158  1  0.78040000  0.31500000  0.65760000  1
  C  C159  1  0.78110000  0.87660000  0.94340000  1
  C  C160  1  0.79240000  0.79740000  0.91200000  1
  C  C161  1  0.79240000  0.35410000  0.19470000  1
  C  C162  1  0.80060000  0.63090000  0.56240000  1
  C  C163  1  0.81780000  0.96320000  0.43670000  1
  C  C164  1  0.83850000  0.23970000  0.73810000  1
  C  C165  1  0.85500000  0.24670000  0.81620000  1
  C  C166  1  0.85530000  0.57420000  0.49180000  1
  C  C167  1  0.85980000  0.33930000  0.89920000  1
  C  C168  1  0.86430000  0.86990000  0.98120000  1
  C  C169  1  0.86730000  0.38270000  0.94520000  1
  C  C170  1  0.88200000  0.71360000  0.91960000  1
  C  C171  1  0.88520000  0.24020000  0.66190000  1
  C  C172  1  0.88550000  0.71780000  0.55910000  1
  C  C173  1  0.91670000  0.19980000  0.70190000  1
  C  C174  1  0.94430000  0.66010000  0.48580000  1
  C  C175  1  0.94520000  0.33020000  0.82480000  1
  C  C176  1  0.94650000  0.37620000  0.86630000  1
  C  C177  1  0.94710000  0.17760000  0.48630000  1
  C  C178  1  0.95260000  0.78600000  0.98570000  1
  C  C179  1  0.95920000  0.73280000  0.52010000  1
  N  N180  1  0.03870000  0.29120000  0.04400000  1
  N  N181  1  0.06130000  0.89420000  0.54380000  1
  N  N182  1  0.16040000  0.97030000  0.53180000  1
  N  N183  1  0.21290000  0.43930000  0.47070000  1
  N  N184  1  0.28780000  0.43920000  0.97090000  1
  N  N185  1  0.33960000  0.97000000  0.03170000  1
  N  N186  1  0.43670000  0.89400000  0.04340000  1
  N  N187  1  0.46120000  0.29020000  0.54440000  1
  N  N188  1  0.53880000  0.70980000  0.45560000  1
  N  N189  1  0.56330000  0.10600000  0.95660000  1
  N  N190  1  0.66040000  0.03000000  0.96830000  1
  N  N191  1  0.71220000  0.56080000  0.02910000  1
  N  N192  1  0.78710000  0.56070000  0.52930000  1
  N  N193  1  0.83960000  0.02970000  0.46820000  1
  N  N194  1  0.93870000  0.10580000  0.45620000  1
  N  N195  1  0.96130000  0.70880000  0.95600000  1
  O  O196  1  0.05290000  0.54070000  0.04590000  1
  O  O197  1  0.13500000  0.80840000  0.22330000  1
  O  O198  1  0.15640000  0.56960000  0.88832000  1
  O  O199  1  0.20400000  0.69040000  0.42009000  1
  O  O200  1  0.21260000  0.65810000  0.02650000  1
  O  O201  1  0.28870000  0.65840000  0.52646000  1
  O  O202  1  0.29720000  0.69020000  0.91999000  1
  O  O203  1  0.34470000  0.56990000  0.38812000  1
  O  O204  1  0.36270000  0.80940000  0.72310000  1
  O  O205  1  0.44490000  0.54090000  0.54560000  1
  O  O206  1  0.55510000  0.45910000  0.45440000  1
  O  O207  1  0.63730000  0.19060000  0.27690000  1
  O  O208  1  0.65530000  0.43010000  0.61188000  1
  O  O209  1  0.70280000  0.30980000  0.08001000  1
  O  O210  1  0.71130000  0.34160000  0.47354000  1
  O  O211  1  0.78740000  0.34190000  0.97350000  1
  O  O212  1  0.79600000  0.30960000  0.57991000  1
  O  O213  1  0.84360000  0.43040000  0.11168000  1
  O  O214  1  0.86500000  0.19160000  0.77670000  1
  O  O215  1  0.94710000  0.45930000  0.95410000  1
