# generated using pymatgen
data_In2FeH52C100(NO4)4
_symmetry_space_group_name_H-M   'P 1'
_cell_length_a   23.48970000
_cell_length_b   23.48950000
_cell_length_c   31.96450000
_cell_angle_alpha   90.00000000
_cell_angle_beta   90.00000000
_cell_angle_gamma   90.00000000
_symmetry_Int_Tables_number   1
_chemical_formula_structural   In2FeH52C100(NO4)4
_chemical_formula_sum   'In4 Fe2 H104 C200 N8 O32'
_cell_volume   17636.77433436
_cell_formula_units_Z   2
loop_
 _symmetry_equiv_pos_site_id
 _symmetry_equiv_pos_as_xyz
  1  'x, y, z'
loop_
 _atom_site_type_symbol
 _atom_site_label
 _atom_site_symmetry_multiplicity
 _atom_site_fract_x
 _atom_site_fract_y
 _atom_site_fract_z
 _atom_site_occupancy
  In  In0  1  0.00000000  0.50000000  0.25002000  1
  In  In1  1  0.00000000  0.50000000  0.74998000  1
  In  In2  1  0.50000000  0.00000000  0.24998000  1
  In  In3  1  0.50000000  0.00000000  0.75002000  1
  Fe  Fe4  1  0.00000000  0.00000000  0.00000000  1
  Fe  Fe5  1  0.50000000  0.50000000  0.50000000  1
  H  H6  1  0.03640000  0.63970000  0.14290000  1
  H  H7  1  0.03640000  0.63970000  0.85710000  1
  H  H8  1  0.03730000  0.96320000  0.15450000  1
  H  H9  1  0.03730000  0.96320000  0.84550000  1
  H  H10  1  0.04870000  0.82900000  0.11470000  1
  H  H11  1  0.04870000  0.82900000  0.88530000  1
  H  H12  1  0.06360000  0.72810000  0.11830000  1
  H  H13  1  0.06360000  0.72810000  0.88170000  1
  H  H14  1  0.07200000  0.68870000  0.25990000  1
  H  H15  1  0.07200000  0.68870000  0.74010000  1
  H  H16  1  0.10640000  0.77630000  0.23410000  1
  H  H17  1  0.10640000  0.77630000  0.76590000  1
  H  H18  1  0.14080000  0.46700000  0.35650000  1
  H  H19  1  0.14080000  0.46700000  0.64350000  1
  H  H20  1  0.14840000  0.85150000  0.03800000  1
  H  H21  1  0.14840000  0.85150000  0.96200000  1
  H  H22  1  0.17070000  0.95050000  0.11430000  1
  H  H23  1  0.17070000  0.95050000  0.88570000  1
  H  H24  1  0.17990000  0.82030000  0.19410000  1
  H  H25  1  0.17990000  0.82030000  0.80590000  1
  H  H26  1  0.19060000  0.42960000  0.23910000  1
  H  H27  1  0.19060000  0.42960000  0.76090000  1
  H  H28  1  0.22510000  0.89220000  0.23500000  1
  H  H29  1  0.22510000  0.89220000  0.76500000  1
  H  H30  1  0.22670000  0.43710000  0.38200000  1
  H  H31  1  0.22670000  0.43710000  0.61800000  1
  H  H32  1  0.27330000  0.93710000  0.11800000  1
  H  H33  1  0.27330000  0.93710000  0.88200000  1
  H  H34  1  0.27490000  0.39220000  0.26500000  1
  H  H35  1  0.27490000  0.39220000  0.73500000  1
  H  H36  1  0.30940000  0.92960000  0.26090000  1
  H  H37  1  0.30940000  0.92960000  0.73910000  1
  H  H38  1  0.32010000  0.32030000  0.30590000  1
  H  H39  1  0.32010000  0.32030000  0.69410000  1
  H  H40  1  0.32930000  0.45050000  0.38570000  1
  H  H41  1  0.32930000  0.45050000  0.61430000  1
  H  H42  1  0.35160000  0.35150000  0.46200000  1
  H  H43  1  0.35160000  0.35150000  0.53800000  1
  H  H44  1  0.35920000  0.96700000  0.14350000  1
  H  H45  1  0.35920000  0.96700000  0.85650000  1
  H  H46  1  0.39360000  0.27630000  0.26590000  1
  H  H47  1  0.39360000  0.27630000  0.73410000  1
  H  H48  1  0.42800000  0.18870000  0.24010000  1
  H  H49  1  0.42800000  0.18870000  0.75990000  1
  H  H50  1  0.43640000  0.22810000  0.38170000  1
  H  H51  1  0.43640000  0.22810000  0.61830000  1
  H  H52  1  0.45130000  0.32900000  0.38530000  1
  H  H53  1  0.45130000  0.32900000  0.61470000  1
  H  H54  1  0.46270000  0.46320000  0.34550000  1
  H  H55  1  0.46270000  0.46320000  0.65450000  1
  H  H56  1  0.46360000  0.13970000  0.35710000  1
  H  H57  1  0.46360000  0.13970000  0.64290000  1
  H  H58  1  0.53640000  0.86030000  0.35710000  1
  H  H59  1  0.53640000  0.86030000  0.64290000  1
  H  H60  1  0.53730000  0.53680000  0.34550000  1
  H  H61  1  0.53730000  0.53680000  0.65450000  1
  H  H62  1  0.54870000  0.67100000  0.38530000  1
  H  H63  1  0.54870000  0.67100000  0.61470000  1
  H  H64  1  0.56360000  0.77190000  0.38170000  1
  H  H65  1  0.56360000  0.77190000  0.61830000  1
  H  H66  1  0.57200000  0.81130000  0.24010000  1
  H  H67  1  0.57200000  0.81130000  0.75990000  1
  H  H68  1  0.60640000  0.72370000  0.26590000  1
  H  H69  1  0.60640000  0.72370000  0.73410000  1
  H  H70  1  0.64080000  0.03300000  0.14350000  1
  H  H71  1  0.64080000  0.03300000  0.85650000  1
  H  H72  1  0.64840000  0.64850000  0.46200000  1
  H  H73  1  0.64840000  0.64850000  0.53800000  1
  H  H74  1  0.67070000  0.54950000  0.38570000  1
  H  H75  1  0.67070000  0.54950000  0.61430000  1
  H  H76  1  0.67990000  0.67970000  0.30590000  1
  H  H77  1  0.67990000  0.67970000  0.69410000  1
  H  H78  1  0.69060000  0.07040000  0.26090000  1
  H  H79  1  0.69060000  0.07040000  0.73910000  1
  H  H80  1  0.72510000  0.60780000  0.26500000  1
  H  H81  1  0.72510000  0.60780000  0.73500000  1
  H  H82  1  0.72670000  0.06290000  0.11800000  1
  H  H83  1  0.72670000  0.06290000  0.88200000  1
  H  H84  1  0.77330000  0.56290000  0.38200000  1
  H  H85  1  0.77330000  0.56290000  0.61800000  1
  H  H86  1  0.77490000  0.10780000  0.23500000  1
  H  H87  1  0.77490000  0.10780000  0.76500000  1
  H  H88  1  0.80940000  0.57040000  0.23910000  1
  H  H89  1  0.80940000  0.57040000  0.76090000  1
  H  H90  1  0.82010000  0.17970000  0.19410000  1
  H  H91  1  0.82010000  0.17970000  0.80590000  1
  H  H92  1  0.82930000  0.04950000  0.11430000  1
  H  H93  1  0.82930000  0.04950000  0.88570000  1
  H  H94  1  0.85160000  0.14850000  0.03800000  1
  H  H95  1  0.85160000  0.14850000  0.96200000  1
  H  H96  1  0.85920000  0.53300000  0.35650000  1
  H  H97  1  0.85920000  0.53300000  0.64350000  1
  H  H98  1  0.89360000  0.22370000  0.23410000  1
  H  H99  1  0.89360000  0.22370000  0.76590000  1
  H  H100  1  0.92800000  0.31130000  0.25990000  1
  H  H101  1  0.92800000  0.31130000  0.74010000  1
  H  H102  1  0.93640000  0.27190000  0.11830000  1
  H  H103  1  0.93640000  0.27190000  0.88170000  1
  H  H104  1  0.95130000  0.17100000  0.11470000  1
  H  H105  1  0.95130000  0.17100000  0.88530000  1
  H  H106  1  0.96270000  0.03680000  0.15450000  1
  H  H107  1  0.96270000  0.03680000  0.84550000  1
  H  H108  1  0.96360000  0.36030000  0.14290000  1
  H  H109  1  0.96360000  0.36030000  0.85710000  1
  C  C110  1  0.02050000  0.97980000  0.13117000  1
  C  C111  1  0.02050000  0.97980000  0.86883000  1
  C  C112  1  0.03185000  0.59860000  0.22100000  1
  C  C113  1  0.03185000  0.59860000  0.77900000  1
  C  C114  1  0.03282000  0.96760000  0.08927000  1
  C  C115  1  0.03282000  0.96760000  0.91073000  1
  C  C116  1  0.04930000  0.66740000  0.16141000  1
  C  C117  1  0.04930000  0.66740000  0.83859000  1
  C  C118  1  0.05086000  0.65638000  0.20379000  1
  C  C119  1  0.05086000  0.65638000  0.79621000  1
  C  C120  1  0.06700000  0.71980000  0.14666000  1
  C  C121  1  0.06700000  0.71980000  0.85334000  1
  C  C122  1  0.07140000  0.69620000  0.23131000  1
  C  C123  1  0.07140000  0.69620000  0.76869000  1
  C  C124  1  0.07338000  0.92644000  0.07546000  1
  C  C125  1  0.07338000  0.92644000  0.92454000  1
  C  C126  1  0.08242000  0.84379000  0.12541000  1
  C  C127  1  0.08242000  0.84379000  0.87459000  1
  C  C128  1  0.08557000  0.91480000  0.03514000  1
  C  C129  1  0.08557000  0.91480000  0.96486000  1
  C  C130  1  0.08980000  0.76070000  0.17367000  1
  C  C131  1  0.08980000  0.76070000  0.82633000  1
  C  C132  1  0.09170000  0.74930000  0.21568000  1
  C  C133  1  0.09170000  0.74930000  0.78432000  1
  C  C134  1  0.09800000  0.46830000  0.27930000  1
  C  C135  1  0.09800000  0.46830000  0.72070000  1
  C  C136  1  0.10467000  0.89491000  0.10991000  1
  C  C137  1  0.10467000  0.89491000  0.89009000  1
  C  C138  1  0.11167000  0.81548000  0.15720000  1
  C  C139  1  0.11167000  0.81548000  0.84280000  1
  C  C140  1  0.12570000  0.87440000  0.02101000  1
  C  C141  1  0.12570000  0.87440000  0.97899000  1
  C  C142  1  0.15592000  0.91692000  0.12515000  1
  C  C143  1  0.15592000  0.91692000  0.87485000  1
  C  C144  1  0.15644000  0.44930000  0.29619000  1
  C  C145  1  0.15644000  0.44930000  0.70381000  1
  C  C146  1  0.16124000  0.83880000  0.17228000  1
  C  C147  1  0.16124000  0.83880000  0.82772000  1
  C  C148  1  0.16800000  0.45240000  0.33827000  1
  C  C149  1  0.16800000  0.45240000  0.66173000  1
  C  C150  1  0.18457000  0.88780000  0.15686000  1
  C  C151  1  0.18457000  0.88780000  0.84314000  1
  C  C152  1  0.19750000  0.42900000  0.26775000  1
  C  C153  1  0.19750000  0.42900000  0.73225000  1
  C  C154  1  0.21900000  0.43400000  0.35356000  1
  C  C155  1  0.21900000  0.43400000  0.64644000  1
  C  C156  1  0.23949000  0.91020000  0.17362000  1
  C  C157  1  0.23949000  0.91020000  0.82638000  1
  C  C158  1  0.24840000  0.40790000  0.28330000  1
  C  C159  1  0.24840000  0.40790000  0.71670000  1
  C  C160  1  0.25160000  0.90790000  0.21670000  1
  C  C161  1  0.25160000  0.90790000  0.78330000  1
  C  C162  1  0.26051000  0.41020000  0.32638000  1
  C  C163  1  0.26051000  0.41020000  0.67362000  1
  C  C164  1  0.28100000  0.93400000  0.14644000  1
  C  C165  1  0.28100000  0.93400000  0.85356000  1
  C  C166  1  0.30250000  0.92900000  0.23225000  1
  C  C167  1  0.30250000  0.92900000  0.76775000  1
  C  C168  1  0.31543000  0.38780000  0.34314000  1
  C  C169  1  0.31543000  0.38780000  0.65686000  1
  C  C170  1  0.33200000  0.95240000  0.16173000  1
  C  C171  1  0.33200000  0.95240000  0.83827000  1
  C  C172  1  0.33876000  0.33880000  0.32772000  1
  C  C173  1  0.33876000  0.33880000  0.67228000  1
  C  C174  1  0.34356000  0.94930000  0.20381000  1
  C  C175  1  0.34356000  0.94930000  0.79619000  1
  C  C176  1  0.34408000  0.41692000  0.37485000  1
  C  C177  1  0.34408000  0.41692000  0.62515000  1
  C  C178  1  0.37430000  0.37440000  0.47899000  1
  C  C179  1  0.37430000  0.37440000  0.52101000  1
  C  C180  1  0.38833000  0.31548000  0.34280000  1
  C  C181  1  0.38833000  0.31548000  0.65720000  1
  C  C182  1  0.39533000  0.39491000  0.39009000  1
  C  C183  1  0.39533000  0.39491000  0.60991000  1
  C  C184  1  0.40200000  0.96830000  0.22070000  1
  C  C185  1  0.40200000  0.96830000  0.77930000  1
  C  C186  1  0.40830000  0.24930000  0.28432000  1
  C  C187  1  0.40830000  0.24930000  0.71568000  1
  C  C188  1  0.41020000  0.26070000  0.32633000  1
  C  C189  1  0.41020000  0.26070000  0.67367000  1
  C  C190  1  0.41443000  0.41480000  0.46486000  1
  C  C191  1  0.41443000  0.41480000  0.53514000  1
  C  C192  1  0.41758000  0.34379000  0.37459000  1
  C  C193  1  0.41758000  0.34379000  0.62541000  1
  C  C194  1  0.42662000  0.42644000  0.42454000  1
  C  C195  1  0.42662000  0.42644000  0.57546000  1
  C  C196  1  0.42860000  0.19620000  0.26869000  1
  C  C197  1  0.42860000  0.19620000  0.73131000  1
  C  C198  1  0.43300000  0.21980000  0.35334000  1
  C  C199  1  0.43300000  0.21980000  0.64666000  1
  C  C200  1  0.44914000  0.15638000  0.29621000  1
  C  C201  1  0.44914000  0.15638000  0.70379000  1
  C  C202  1  0.45070000  0.16740000  0.33859000  1
  C  C203  1  0.45070000  0.16740000  0.66141000  1
  C  C204  1  0.46718000  0.46760000  0.41073000  1
  C  C205  1  0.46718000  0.46760000  0.58927000  1
  C  C206  1  0.46815000  0.09860000  0.27900000  1
  C  C207  1  0.46815000  0.09860000  0.72100000  1
  C  C208  1  0.47950000  0.47980000  0.36883000  1
  C  C209  1  0.47950000  0.47980000  0.63117000  1
  C  C210  1  0.52050000  0.52020000  0.36883000  1
  C  C211  1  0.52050000  0.52020000  0.63117000  1
  C  C212  1  0.53185000  0.90140000  0.27900000  1
  C  C213  1  0.53185000  0.90140000  0.72100000  1
  C  C214  1  0.53282000  0.53240000  0.41073000  1
  C  C215  1  0.53282000  0.53240000  0.58927000  1
  C  C216  1  0.54930000  0.83260000  0.33859000  1
  C  C217  1  0.54930000  0.83260000  0.66141000  1
  C  C218  1  0.55086000  0.84362000  0.29621000  1
  C  C219  1  0.55086000  0.84362000  0.70379000  1
  C  C220  1  0.56700000  0.78020000  0.35334000  1
  C  C221  1  0.56700000  0.78020000  0.64666000  1
  C  C222  1  0.57140000  0.80380000  0.26869000  1
  C  C223  1  0.57140000  0.80380000  0.73131000  1
  C  C224  1  0.57338000  0.57356000  0.42454000  1
  C  C225  1  0.57338000  0.57356000  0.57546000  1
  C  C226  1  0.58242000  0.65621000  0.37459000  1
  C  C227  1  0.58242000  0.65621000  0.62541000  1
  C  C228  1  0.58557000  0.58520000  0.46486000  1
  C  C229  1  0.58557000  0.58520000  0.53514000  1
  C  C230  1  0.58980000  0.73930000  0.32633000  1
  C  C231  1  0.58980000  0.73930000  0.67367000  1
  C  C232  1  0.59170000  0.75070000  0.28432000  1
  C  C233  1  0.59170000  0.75070000  0.71568000  1
  C  C234  1  0.59800000  0.03170000  0.22070000  1
  C  C235  1  0.59800000  0.03170000  0.77930000  1
  C  C236  1  0.60467000  0.60509000  0.39009000  1
  C  C237  1  0.60467000  0.60509000  0.60991000  1
  C  C238  1  0.61167000  0.68452000  0.34280000  1
  C  C239  1  0.61167000  0.68452000  0.65720000  1
  C  C240  1  0.62570000  0.62560000  0.47899000  1
  C  C241  1  0.62570000  0.62560000  0.52101000  1
  C  C242  1  0.65592000  0.58308000  0.37485000  1
  C  C243  1  0.65592000  0.58308000  0.62515000  1
  C  C244  1  0.65644000  0.05070000  0.20381000  1
  C  C245  1  0.65644000  0.05070000  0.79619000  1
  C  C246  1  0.66124000  0.66120000  0.32772000  1
  C  C247  1  0.66124000  0.66120000  0.67228000  1
  C  C248  1  0.66800000  0.04760000  0.16173000  1
  C  C249  1  0.66800000  0.04760000  0.83827000  1
  C  C250  1  0.68457000  0.61220000  0.34314000  1
  C  C251  1  0.68457000  0.61220000  0.65686000  1
  C  C252  1  0.69750000  0.07100000  0.23225000  1
  C  C253  1  0.69750000  0.07100000  0.76775000  1
  C  C254  1  0.71900000  0.06600000  0.14644000  1
  C  C255  1  0.71900000  0.06600000  0.85356000  1
  C  C256  1  0.73949000  0.58980000  0.32638000  1
  C  C257  1  0.73949000  0.58980000  0.67362000  1
  C  C258  1  0.74840000  0.09210000  0.21670000  1
  C  C259  1  0.74840000  0.09210000  0.78330000  1
  C  C260  1  0.75160000  0.59210000  0.28330000  1
  C  C261  1  0.75160000  0.59210000  0.71670000  1
  C  C262  1  0.76051000  0.08980000  0.17362000  1
  C  C263  1  0.76051000  0.08980000  0.82638000  1
  C  C264  1  0.78100000  0.56600000  0.35356000  1
  C  C265  1  0.78100000  0.56600000  0.64644000  1
  C  C266  1  0.80250000  0.57100000  0.26775000  1
  C  C267  1  0.80250000  0.57100000  0.73225000  1
  C  C268  1  0.81543000  0.11220000  0.15686000  1
  C  C269  1  0.81543000  0.11220000  0.84314000  1
  C  C270  1  0.83200000  0.54760000  0.33827000  1
  C  C271  1  0.83200000  0.54760000  0.66173000  1
  C  C272  1  0.83876000  0.16120000  0.17228000  1
  C  C273  1  0.83876000  0.16120000  0.82772000  1
  C  C274  1  0.84356000  0.55070000  0.29619000  1
  C  C275  1  0.84356000  0.55070000  0.70381000  1
  C  C276  1  0.84408000  0.08308000  0.12515000  1
  C  C277  1  0.84408000  0.08308000  0.87485000  1
  C  C278  1  0.87430000  0.12560000  0.02101000  1
  C  C279  1  0.87430000  0.12560000  0.97899000  1
  C  C280  1  0.88833000  0.18452000  0.15720000  1
  C  C281  1  0.88833000  0.18452000  0.84280000  1
  C  C282  1  0.89533000  0.10509000  0.10991000  1
  C  C283  1  0.89533000  0.10509000  0.89009000  1
  C  C284  1  0.90200000  0.53170000  0.27930000  1
  C  C285  1  0.90200000  0.53170000  0.72070000  1
  C  C286  1  0.90830000  0.25070000  0.21568000  1
  C  C287  1  0.90830000  0.25070000  0.78432000  1
  C  C288  1  0.91020000  0.23930000  0.17367000  1
  C  C289  1  0.91020000  0.23930000  0.82633000  1
  C  C290  1  0.91443000  0.08520000  0.03514000  1
  C  C291  1  0.91443000  0.08520000  0.96486000  1
  C  C292  1  0.91758000  0.15621000  0.12541000  1
  C  C293  1  0.91758000  0.15621000  0.87459000  1
  C  C294  1  0.92662000  0.07356000  0.07546000  1
  C  C295  1  0.92662000  0.07356000  0.92454000  1
  C  C296  1  0.92860000  0.30380000  0.23131000  1
  C  C297  1  0.92860000  0.30380000  0.76869000  1
  C  C298  1  0.93300000  0.28020000  0.14666000  1
  C  C299  1  0.93300000  0.28020000  0.85334000  1
  C  C300  1  0.94914000  0.34362000  0.20379000  1
  C  C301  1  0.94914000  0.34362000  0.79621000  1
  C  C302  1  0.95070000  0.33260000  0.16141000  1
  C  C303  1  0.95070000  0.33260000  0.83859000  1
  C  C304  1  0.96718000  0.03240000  0.08927000  1
  C  C305  1  0.96718000  0.03240000  0.91073000  1
  C  C306  1  0.96815000  0.40140000  0.22100000  1
  C  C307  1  0.96815000  0.40140000  0.77900000  1
  C  C308  1  0.97950000  0.02020000  0.13117000  1
  C  C309  1  0.97950000  0.02020000  0.86883000  1
  N  N310  1  0.00000000  0.00000000  0.06278000  1
  N  N311  1  0.00000000  0.00000000  0.93722000  1
  N  N312  1  0.06100000  0.93932000  0.00000000  1
  N  N313  1  0.43900000  0.43932000  0.50000000  1
  N  N314  1  0.50000000  0.50000000  0.43722000  1
  N  N315  1  0.50000000  0.50000000  0.56278000  1
  N  N316  1  0.56100000  0.56068000  0.50000000  1
  N  N317  1  0.93900000  0.06068000  0.00000000  1
  O  O318  1  0.01802000  0.56052000  0.19527000  1
  O  O319  1  0.01802000  0.56052000  0.80473000  1
  O  O320  1  0.03131000  0.59080000  0.25980000  1
  O  O321  1  0.03131000  0.59080000  0.74020000  1
  O  O322  1  0.06031000  0.48235000  0.30499000  1
  O  O323  1  0.06031000  0.48235000  0.69501000  1
  O  O324  1  0.09091000  0.46929000  0.24035000  1
  O  O325  1  0.09091000  0.46929000  0.75965000  1
  O  O326  1  0.40909000  0.96929000  0.25965000  1
  O  O327  1  0.40909000  0.96929000  0.74035000  1
  O  O328  1  0.43969000  0.98235000  0.19501000  1
  O  O329  1  0.43969000  0.98235000  0.80499000  1
  O  O330  1  0.46869000  0.09080000  0.24020000  1
  O  O331  1  0.46869000  0.09080000  0.75980000  1
  O  O332  1  0.48198000  0.06052000  0.30473000  1
  O  O333  1  0.48198000  0.06052000  0.69527000  1
  O  O334  1  0.51802000  0.93948000  0.30473000  1
  O  O335  1  0.51802000  0.93948000  0.69527000  1
  O  O336  1  0.53131000  0.90920000  0.24020000  1
  O  O337  1  0.53131000  0.90920000  0.75980000  1
  O  O338  1  0.56031000  0.01765000  0.19501000  1
  O  O339  1  0.56031000  0.01765000  0.80499000  1
  O  O340  1  0.59091000  0.03071000  0.25965000  1
  O  O341  1  0.59091000  0.03071000  0.74035000  1
  O  O342  1  0.90909000  0.53071000  0.24035000  1
  O  O343  1  0.90909000  0.53071000  0.75965000  1
  O  O344  1  0.93969000  0.51765000  0.30499000  1
  O  O345  1  0.93969000  0.51765000  0.69501000  1
  O  O346  1  0.96869000  0.40920000  0.25980000  1
  O  O347  1  0.96869000  0.40920000  0.74020000  1
  O  O348  1  0.98198000  0.43948000  0.19527000  1
  O  O349  1  0.98198000  0.43948000  0.80473000  1
