# generated using pymatgen
data_GdH2(CO)7
_symmetry_space_group_name_H-M   'P 1'
_cell_length_a   7.31730000
_cell_length_b   9.70220000
_cell_length_c   14.70830000
_cell_angle_alpha   90.00000000
_cell_angle_beta   99.52060000
_cell_angle_gamma   90.00000000
_symmetry_Int_Tables_number   1
_chemical_formula_structural   GdH2(CO)7
_chemical_formula_sum   'Gd4 H8 C28 O28'
_cell_volume   1029.81709692
_cell_formula_units_Z   4
loop_
 _symmetry_equiv_pos_site_id
 _symmetry_equiv_pos_as_xyz
  1  'x, y, z'
loop_
 _atom_site_type_symbol
 _atom_site_label
 _atom_site_symmetry_multiplicity
 _atom_site_fract_x
 _atom_site_fract_y
 _atom_site_fract_z
 _atom_site_occupancy
  Gd  Gd0  1  0.13620000  0.05505000  0.85744000  1
  Gd  Gd1  1  0.36380000  0.55505000  0.64256000  1
  Gd  Gd2  1  0.63620000  0.44495000  0.35744000  1
  Gd  Gd3  1  0.86380000  0.94495000  0.14256000  1
  H  H4  1  0.18100000  0.83490000  0.45480000  1
  H  H5  1  0.22250000  0.54700000  0.12420000  1
  H  H6  1  0.27750000  0.04700000  0.37580000  1
  H  H7  1  0.31900000  0.33490000  0.04520000  1
  H  H8  1  0.68100000  0.66510000  0.95480000  1
  H  H9  1  0.72250000  0.95300000  0.62420000  1
  H  H10  1  0.77750000  0.45300000  0.87580000  1
  H  H11  1  0.81900000  0.16510000  0.54520000  1
  C  C12  1  0.04280000  0.53510000  0.46150000  1
  C  C13  1  0.10570000  0.77340000  0.99660000  1
  C  C14  1  0.18790000  0.87570000  0.65280000  1
  C  C15  1  0.18840000  0.63500000  0.99660000  1
  C  C16  1  0.21600000  0.91940000  0.48220000  1
  C  C17  1  0.22430000  0.95270000  0.57190000  1
  C  C18  1  0.22920000  0.53790000  0.06190000  1
  C  C19  1  0.27080000  0.03790000  0.43810000  1
  C  C20  1  0.27570000  0.45270000  0.92810000  1
  C  C21  1  0.28400000  0.41940000  0.01780000  1
  C  C22  1  0.31160000  0.13500000  0.50340000  1
  C  C23  1  0.31210000  0.37570000  0.84720000  1
  C  C24  1  0.39430000  0.27340000  0.50340000  1
  C  C25  1  0.45720000  0.03510000  0.03850000  1
  C  C26  1  0.54280000  0.96490000  0.96150000  1
  C  C27  1  0.60570000  0.72660000  0.49660000  1
  C  C28  1  0.68790000  0.62430000  0.15280000  1
  C  C29  1  0.68840000  0.86500000  0.49660000  1
  C  C30  1  0.71600000  0.58060000  0.98220000  1
  C  C31  1  0.72430000  0.54730000  0.07190000  1
  C  C32  1  0.72920000  0.96210000  0.56190000  1
  C  C33  1  0.77080000  0.46210000  0.93810000  1
  C  C34  1  0.77570000  0.04730000  0.42810000  1
  C  C35  1  0.78400000  0.08060000  0.51780000  1
  C  C36  1  0.81160000  0.36500000  0.00340000  1
  C  C37  1  0.81210000  0.12430000  0.34720000  1
  C  C38  1  0.89430000  0.22660000  0.00340000  1
  C  C39  1  0.95720000  0.46490000  0.53850000  1
  O  O40  1  0.05750000  0.45370000  0.61590000  1
  O  O41  1  0.06150000  0.81180000  0.07120000  1
  O  O42  1  0.08770000  0.84050000  0.92320000  1
  O  O43  1  0.16420000  0.74710000  0.64330000  1
  O  O44  1  0.17840000  0.94000000  0.72510000  1
  O  O45  1  0.20720000  0.57570000  0.48220000  1
  O  O46  1  0.21680000  0.58570000  0.91310000  1
  O  O47  1  0.28320000  0.08570000  0.58690000  1
  O  O48  1  0.29280000  0.07570000  0.01780000  1
  O  O49  1  0.32160000  0.44000000  0.77490000  1
  O  O50  1  0.33580000  0.24710000  0.85670000  1
  O  O51  1  0.41230000  0.34050000  0.57680000  1
  O  O52  1  0.43850000  0.31180000  0.42880000  1
  O  O53  1  0.44250000  0.95370000  0.88410000  1
  O  O54  1  0.55750000  0.04630000  0.11590000  1
  O  O55  1  0.56150000  0.68820000  0.57120000  1
  O  O56  1  0.58770000  0.65950000  0.42320000  1
  O  O57  1  0.66420000  0.75290000  0.14330000  1
  O  O58  1  0.67840000  0.56000000  0.22510000  1
  O  O59  1  0.70720000  0.92430000  0.98220000  1
  O  O60  1  0.71680000  0.91430000  0.41310000  1
  O  O61  1  0.78320000  0.41430000  0.08690000  1
  O  O62  1  0.79280000  0.42430000  0.51780000  1
  O  O63  1  0.82160000  0.06000000  0.27490000  1
  O  O64  1  0.83580000  0.25290000  0.35670000  1
  O  O65  1  0.91230000  0.15950000  0.07680000  1
  O  O66  1  0.93850000  0.18820000  0.92880000  1
  O  O67  1  0.94250000  0.54630000  0.38410000  1
