# generated using pymatgen
data_Ga7(P4O17)2
_symmetry_space_group_name_H-M   'P 1'
_cell_length_a   9.18881635
_cell_length_b   9.18881635
_cell_length_c   23.04540000
_cell_angle_alpha   79.18733891
_cell_angle_beta   79.18733891
_cell_angle_gamma   80.87281416
_symmetry_Int_Tables_number   1
_chemical_formula_structural   Ga7(P4O17)2
_chemical_formula_sum   'Ga14 P16 O68'
_cell_volume   1861.91644276
_cell_formula_units_Z   2
loop_
 _symmetry_equiv_pos_site_id
 _symmetry_equiv_pos_as_xyz
  1  'x, y, z'
loop_
 _atom_site_type_symbol
 _atom_site_label
 _atom_site_symmetry_multiplicity
 _atom_site_fract_x
 _atom_site_fract_y
 _atom_site_fract_z
 _atom_site_occupancy
  Ga  Ga0  1  0.36604000  0.63396000  0.75000000  1
  Ga  Ga1  1  0.63396000  0.36604000  0.25000000  1
  Ga  Ga2  1  0.13408000  0.87082000  0.93825000  1
  Ga  Ga3  1  0.87082000  0.13408000  0.43825000  1
  Ga  Ga4  1  0.58609000  0.66961000  0.55326000  1
  Ga  Ga5  1  0.66961000  0.58609000  0.05326000  1
  Ga  Ga6  1  0.48420000  0.83460000  0.41129000  1
  Ga  Ga7  1  0.83460000  0.48420000  0.91129000  1
  Ga  Ga8  1  0.51580000  0.16540000  0.58871000  1
  Ga  Ga9  1  0.16540000  0.51580000  0.08871000  1
  Ga  Ga10  1  0.41391000  0.33039000  0.44674000  1
  Ga  Ga11  1  0.33039000  0.41391000  0.94674000  1
  Ga  Ga12  1  0.86592000  0.12918000  0.06175000  1
  Ga  Ga13  1  0.12918000  0.86592000  0.56175000  1
  O  O14  1  0.41850000  0.58430000  0.95491000  1
  O  O15  1  0.58430000  0.41850000  0.45491000  1
  O  O16  1  0.32580000  0.72140000  0.44918000  1
  O  O17  1  0.72140000  0.32580000  0.94918000  1
  O  O18  1  0.18390000  0.86710000  0.63453000  1
  O  O19  1  0.86710000  0.18390000  0.13453000  1
  O  O20  1  0.37210000  0.69910000  0.29274000  1
  O  O21  1  0.69910000  0.37210000  0.79274000  1
  O  O22  1  0.52120000  0.60360000  0.12771000  1
  O  O23  1  0.60360000  0.52120000  0.62771000  1
  O  O24  1  0.06850000  0.06550000  0.42189000  1
  O  O25  1  0.06550000  0.06850000  0.92189000  1
  O  O26  1  0.52230000  0.61470000  0.78953000  1
  O  O27  1  0.61470000  0.52230000  0.28953000  1
  O  O28  1  0.32190000  0.85430000  0.95681000  1
  O  O29  1  0.85430000  0.32190000  0.45681000  1
  O  O30  1  0.36730000  0.81790000  0.70509000  1
  O  O31  1  0.81790000  0.36730000  0.20509000  1
  O  O32  1  0.22260000  0.00480000  0.50455000  1
  O  O33  1  0.00480000  0.22260000  0.00455000  1
  O  O34  1  0.55860000  0.69560000  0.35954000  1
  O  O35  1  0.69560000  0.55860000  0.85954000  1
  O  O36  1  0.45300000  0.81420000  0.59499000  1
  O  O37  1  0.81420000  0.45300000  0.09499000  1
  O  O38  1  0.53620000  0.73920000  0.00851000  1
  O  O39  1  0.73920000  0.53620000  0.50851000  1
  O  O40  1  0.33870000  0.99890000  0.39573000  1
  O  O41  1  0.99890000  0.33870000  0.89573000  1
  O  O42  1  0.57560000  0.81140000  0.47829000  1
  O  O43  1  0.81140000  0.57560000  0.97829000  1
  O  O44  1  0.35510000  0.05250000  0.63475000  1
  O  O45  1  0.05250000  0.35510000  0.13475000  1
  O  O46  1  0.24160000  0.24040000  0.93280000  1
  O  O47  1  0.24040000  0.24160000  0.43280000  1
  O  O48  1  0.75840000  0.75960000  0.06720000  1
  O  O49  1  0.75960000  0.75840000  0.56720000  1
  O  O50  1  0.64490000  0.94750000  0.36525000  1
  O  O51  1  0.94750000  0.64490000  0.86525000  1
  O  O52  1  0.42440000  0.18860000  0.52171000  1
  O  O53  1  0.18860000  0.42440000  0.02171000  1
  O  O54  1  0.66130000  0.00110000  0.60427000  1
  O  O55  1  0.00110000  0.66130000  0.10427000  1
  O  O56  1  0.46380000  0.26080000  0.99149000  1
  O  O57  1  0.26080000  0.46380000  0.49149000  1
  O  O58  1  0.54700000  0.18580000  0.40501000  1
  O  O59  1  0.18580000  0.54700000  0.90501000  1
  O  O60  1  0.44140000  0.30440000  0.64046000  1
  O  O61  1  0.30440000  0.44140000  0.14046000  1
  O  O62  1  0.77740000  0.99520000  0.49545000  1
  O  O63  1  0.99520000  0.77740000  0.99545000  1
  O  O64  1  0.63270000  0.18210000  0.29491000  1
  O  O65  1  0.18210000  0.63270000  0.79491000  1
  O  O66  1  0.67810000  0.14570000  0.04319000  1
  O  O67  1  0.14570000  0.67810000  0.54319000  1
  O  O68  1  0.47770000  0.38530000  0.21047000  1
  O  O69  1  0.38530000  0.47770000  0.71047000  1
  O  O70  1  0.93150000  0.93450000  0.57811000  1
  O  O71  1  0.93450000  0.93150000  0.07811000  1
  O  O72  1  0.47880000  0.39640000  0.87229000  1
  O  O73  1  0.39640000  0.47880000  0.37229000  1
  O  O74  1  0.62790000  0.30090000  0.70726000  1
  O  O75  1  0.30090000  0.62790000  0.20726000  1
  O  O76  1  0.81610000  0.13290000  0.36547000  1
  O  O77  1  0.13290000  0.81610000  0.86547000  1
  O  O78  1  0.67420000  0.27860000  0.55082000  1
  O  O79  1  0.27860000  0.67420000  0.05082000  1
  O  O80  1  0.58150000  0.41570000  0.04509000  1
  O  O81  1  0.41570000  0.58150000  0.54509000  1
  P  P82  1  0.48127000  0.59695000  0.33069000  1
  P  P83  1  0.59695000  0.48127000  0.83069000  1
  P  P84  1  0.39100000  0.70486000  0.99387000  1
  P  P85  1  0.70486000  0.39100000  0.49387000  1
  P  P86  1  0.34542000  0.88646000  0.64112000  1
  P  P87  1  0.88646000  0.34542000  0.14112000  1
  P  P88  1  0.21943000  0.07881000  0.43814000  1
  P  P89  1  0.07881000  0.21943000  0.93814000  1
  P  P90  1  0.78057000  0.92119000  0.56186000  1
  P  P91  1  0.92119000  0.78057000  0.06186000  1
  P  P92  1  0.65458000  0.11354000  0.35888000  1
  P  P93  1  0.11354000  0.65458000  0.85888000  1
  P  P94  1  0.60900000  0.29514000  0.00613000  1
  P  P95  1  0.29514000  0.60900000  0.50613000  1
  P  P96  1  0.51873000  0.40305000  0.66931000  1
  P  P97  1  0.40305000  0.51873000  0.16931000  1
