# generated using pymatgen
data_Zn2P2H16C13(NO3)2
_symmetry_space_group_name_H-M   'P 1'
_cell_length_a   8.45900000
_cell_length_b   9.62200000
_cell_length_c   24.38900000
_cell_angle_alpha   90.00000000
_cell_angle_beta   90.00000000
_cell_angle_gamma   90.00000000
_symmetry_Int_Tables_number   1
_chemical_formula_structural   Zn2P2H16C13(NO3)2
_chemical_formula_sum   'Zn8 P8 H64 C52 N8 O24'
_cell_volume   1985.08163372
_cell_formula_units_Z   4
loop_
 _symmetry_equiv_pos_site_id
 _symmetry_equiv_pos_as_xyz
  1  'x, y, z'
loop_
 _atom_site_type_symbol
 _atom_site_label
 _atom_site_symmetry_multiplicity
 _atom_site_fract_x
 _atom_site_fract_y
 _atom_site_fract_z
 _atom_site_occupancy
  Zn  Zn0  1  0.22659000  0.09552000  0.03507000  1
  Zn  Zn1  1  0.22659000  0.40448000  0.46493000  1
  Zn  Zn2  1  0.27341000  0.59552000  0.96493000  1
  Zn  Zn3  1  0.27341000  0.90448000  0.53507000  1
  Zn  Zn4  1  0.72659000  0.09552000  0.46493000  1
  Zn  Zn5  1  0.72659000  0.40448000  0.03507000  1
  Zn  Zn6  1  0.77341000  0.59552000  0.53507000  1
  Zn  Zn7  1  0.77341000  0.90448000  0.96493000  1
  P  P8  1  0.13446000  0.60205000  0.56237000  1
  P  P9  1  0.13446000  0.89795000  0.93763000  1
  P  P10  1  0.36554000  0.10205000  0.43763000  1
  P  P11  1  0.36554000  0.39795000  0.06237000  1
  P  P12  1  0.63446000  0.60205000  0.93763000  1
  P  P13  1  0.63446000  0.89795000  0.56237000  1
  P  P14  1  0.86554000  0.10205000  0.06237000  1
  P  P15  1  0.86554000  0.39795000  0.43763000  1
  H  H16  1  0.02600000  0.67320000  0.26240000  1
  H  H17  1  0.02600000  0.82680000  0.23760000  1
  H  H18  1  0.04700000  0.04500000  0.29930000  1
  H  H19  1  0.04700000  0.45500000  0.20070000  1
  H  H20  1  0.08210000  0.70880000  0.39750000  1
  H  H21  1  0.08210000  0.79120000  0.10250000  1
  H  H22  1  0.08790000  0.18450000  0.54160000  1
  H  H23  1  0.08790000  0.31550000  0.95840000  1
  H  H24  1  0.12240000  0.64390000  0.86220000  1
  H  H25  1  0.12240000  0.85610000  0.63780000  1
  H  H26  1  0.22070000  0.61330000  0.60630000  1
  H  H27  1  0.22070000  0.88670000  0.89370000  1
  H  H28  1  0.22920000  0.13020000  0.78630000  1
  H  H29  1  0.22920000  0.36980000  0.71370000  1
  H  H30  1  0.25000000  0.22130000  0.68480000  1
  H  H31  1  0.25000000  0.27870000  0.81520000  1
  H  H32  1  0.25000000  0.72130000  0.31520000  1
  H  H33  1  0.25000000  0.77870000  0.18480000  1
  H  H34  1  0.27080000  0.63020000  0.21370000  1
  H  H35  1  0.27080000  0.86980000  0.28630000  1
  H  H36  1  0.27930000  0.11330000  0.39370000  1
  H  H37  1  0.27930000  0.38670000  0.10630000  1
  H  H38  1  0.37760000  0.14390000  0.13780000  1
  H  H39  1  0.37760000  0.35610000  0.36220000  1
  H  H40  1  0.41210000  0.68450000  0.45840000  1
  H  H41  1  0.41210000  0.81550000  0.04160000  1
  H  H42  1  0.41790000  0.20880000  0.60250000  1
  H  H43  1  0.41790000  0.29120000  0.89750000  1
  H  H44  1  0.45300000  0.54500000  0.70070000  1
  H  H45  1  0.45300000  0.95500000  0.79930000  1
  H  H46  1  0.47400000  0.17320000  0.73760000  1
  H  H47  1  0.47400000  0.32680000  0.76240000  1
  H  H48  1  0.52600000  0.67320000  0.23760000  1
  H  H49  1  0.52600000  0.82680000  0.26240000  1
  H  H50  1  0.54700000  0.04500000  0.20070000  1
  H  H51  1  0.54700000  0.45500000  0.29930000  1
  H  H52  1  0.58210000  0.70880000  0.10250000  1
  H  H53  1  0.58210000  0.79120000  0.39750000  1
  H  H54  1  0.58790000  0.18450000  0.95840000  1
  H  H55  1  0.58790000  0.31550000  0.54160000  1
  H  H56  1  0.62240000  0.64390000  0.63780000  1
  H  H57  1  0.62240000  0.85610000  0.86220000  1
  H  H58  1  0.72070000  0.61330000  0.89370000  1
  H  H59  1  0.72070000  0.88670000  0.60630000  1
  H  H60  1  0.72920000  0.13020000  0.71370000  1
  H  H61  1  0.72920000  0.36980000  0.78630000  1
  H  H62  1  0.75000000  0.22130000  0.81520000  1
  H  H63  1  0.75000000  0.27870000  0.68480000  1
  H  H64  1  0.75000000  0.72130000  0.18480000  1
  H  H65  1  0.75000000  0.77870000  0.31520000  1
  H  H66  1  0.77080000  0.63020000  0.28630000  1
  H  H67  1  0.77080000  0.86980000  0.21370000  1
  H  H68  1  0.77930000  0.11330000  0.10630000  1
  H  H69  1  0.77930000  0.38670000  0.39370000  1
  H  H70  1  0.87760000  0.14390000  0.36220000  1
  H  H71  1  0.87760000  0.35610000  0.13780000  1
  H  H72  1  0.91210000  0.68450000  0.04160000  1
  H  H73  1  0.91210000  0.81550000  0.45840000  1
  H  H74  1  0.91790000  0.20880000  0.89750000  1
  H  H75  1  0.91790000  0.29120000  0.60250000  1
  H  H76  1  0.95300000  0.54500000  0.79930000  1
  H  H77  1  0.95300000  0.95500000  0.70070000  1
  H  H78  1  0.97400000  0.17320000  0.76240000  1
  H  H79  1  0.97400000  0.32680000  0.73760000  1
  C  C80  1  0.02120000  0.50420000  0.16811000  1
  C  C81  1  0.02120000  0.99580000  0.33189000  1
  C  C82  1  0.04190000  0.70130000  0.11058000  1
  C  C83  1  0.04190000  0.79870000  0.38942000  1
  C  C84  1  0.05990000  0.13740000  0.57445000  1
  C  C85  1  0.05990000  0.36260000  0.92555000  1
  C  C86  1  0.08010000  0.55430000  0.86947000  1
  C  C87  1  0.08010000  0.94570000  0.63053000  1
  C  C88  1  0.08630000  0.63510000  0.15878000  1
  C  C89  1  0.08630000  0.86490000  0.34122000  1
  C  C90  1  0.09520000  0.75000000  0.25000000  1
  C  C91  1  0.19220000  0.69950000  0.20114000  1
  C  C92  1  0.19220000  0.80050000  0.29886000  1
  C  C93  1  0.30780000  0.19950000  0.79886000  1
  C  C94  1  0.30780000  0.30050000  0.70114000  1
  C  C95  1  0.40480000  0.25000000  0.75000000  1
  C  C96  1  0.41370000  0.13510000  0.84122000  1
  C  C97  1  0.41370000  0.36490000  0.65878000  1
  C  C98  1  0.41990000  0.05430000  0.13053000  1
  C  C99  1  0.41990000  0.44570000  0.36947000  1
  C  C100  1  0.44010000  0.63740000  0.42555000  1
  C  C101  1  0.44010000  0.86260000  0.07445000  1
  C  C102  1  0.45810000  0.20130000  0.88942000  1
  C  C103  1  0.45810000  0.29870000  0.61058000  1
  C  C104  1  0.47880000  0.00420000  0.83189000  1
  C  C105  1  0.47880000  0.49580000  0.66811000  1
  C  C106  1  0.52120000  0.50420000  0.33189000  1
  C  C107  1  0.52120000  0.99580000  0.16811000  1
  C  C108  1  0.54190000  0.70130000  0.38942000  1
  C  C109  1  0.54190000  0.79870000  0.11058000  1
  C  C110  1  0.55990000  0.13740000  0.92555000  1
  C  C111  1  0.55990000  0.36260000  0.57445000  1
  C  C112  1  0.58010000  0.55430000  0.63053000  1
  C  C113  1  0.58010000  0.94570000  0.86947000  1
  C  C114  1  0.58630000  0.63510000  0.34122000  1
  C  C115  1  0.58630000  0.86490000  0.15878000  1
  C  C116  1  0.59520000  0.75000000  0.25000000  1
  C  C117  1  0.69220000  0.69950000  0.29886000  1
  C  C118  1  0.69220000  0.80050000  0.20114000  1
  C  C119  1  0.80780000  0.19950000  0.70114000  1
  C  C120  1  0.80780000  0.30050000  0.79886000  1
  C  C121  1  0.90480000  0.25000000  0.75000000  1
  C  C122  1  0.91370000  0.13510000  0.65878000  1
  C  C123  1  0.91370000  0.36490000  0.84122000  1
  C  C124  1  0.91990000  0.05430000  0.36947000  1
  C  C125  1  0.91990000  0.44570000  0.13053000  1
  C  C126  1  0.94010000  0.63740000  0.07445000  1
  C  C127  1  0.94010000  0.86260000  0.42555000  1
  C  C128  1  0.95810000  0.20130000  0.61058000  1
  C  C129  1  0.95810000  0.29870000  0.88942000  1
  C  C130  1  0.97880000  0.00420000  0.66811000  1
  C  C131  1  0.97880000  0.49580000  0.83189000  1
  N  N132  1  0.12130000  0.01080000  0.58391000  1
  N  N133  1  0.12130000  0.48920000  0.91609000  1
  N  N134  1  0.37870000  0.51080000  0.41609000  1
  N  N135  1  0.37870000  0.98920000  0.08391000  1
  N  N136  1  0.62130000  0.01080000  0.91609000  1
  N  N137  1  0.62130000  0.48920000  0.58391000  1
  N  N138  1  0.87870000  0.51080000  0.08391000  1
  N  N139  1  0.87870000  0.98920000  0.41609000  1
  O  O140  1  0.03790000  0.10863000  0.08164000  1
  O  O141  1  0.03790000  0.39137000  0.41836000  1
  O  O142  1  0.17610000  0.03674000  0.96277000  1
  O  O143  1  0.17610000  0.46326000  0.53723000  1
  O  O144  1  0.17990000  0.72255000  0.52595000  1
  O  O145  1  0.17990000  0.77745000  0.97405000  1
  O  O146  1  0.32010000  0.22255000  0.47405000  1
  O  O147  1  0.32010000  0.27745000  0.02595000  1
  O  O148  1  0.32390000  0.53674000  0.03723000  1
  O  O149  1  0.32390000  0.96326000  0.46277000  1
  O  O150  1  0.46210000  0.60863000  0.91836000  1
  O  O151  1  0.46210000  0.89137000  0.58164000  1
  O  O152  1  0.53790000  0.10863000  0.41836000  1
  O  O153  1  0.53790000  0.39137000  0.08164000  1
  O  O154  1  0.67610000  0.03674000  0.53723000  1
  O  O155  1  0.67610000  0.46326000  0.96277000  1
  O  O156  1  0.67990000  0.72255000  0.97405000  1
  O  O157  1  0.67990000  0.77745000  0.52595000  1
  O  O158  1  0.82010000  0.22255000  0.02595000  1
  O  O159  1  0.82010000  0.27745000  0.47405000  1
  O  O160  1  0.82390000  0.53674000  0.46277000  1
  O  O161  1  0.82390000  0.96326000  0.03723000  1
  O  O162  1  0.96210000  0.60863000  0.58164000  1
  O  O163  1  0.96210000  0.89137000  0.91836000  1
