# generated using pymatgen
data_CuH28C28Br(N2O)4
_symmetry_space_group_name_H-M   'P 1'
_cell_length_a   5.36280000
_cell_length_b   17.31400000
_cell_length_c   17.35328750
_cell_angle_alpha   92.70984460
_cell_angle_beta   90.00000000
_cell_angle_gamma   90.00000000
_symmetry_Int_Tables_number   1
_chemical_formula_structural   CuH28C28Br(N2O)4
_chemical_formula_sum   'Cu2 H56 C56 Br2 N16 O8'
_cell_volume   1609.47732082
_cell_formula_units_Z   2
loop_
 _symmetry_equiv_pos_site_id
 _symmetry_equiv_pos_as_xyz
  1  'x, y, z'
loop_
 _atom_site_type_symbol
 _atom_site_label
 _atom_site_symmetry_multiplicity
 _atom_site_fract_x
 _atom_site_fract_y
 _atom_site_fract_z
 _atom_site_occupancy
  Cu  Cu0  1  0.19569000  0.75000000  0.75000000  1
  Cu  Cu1  1  0.80431000  0.25000000  0.25000000  1
  H  H2  1  0.46160000  0.65720000  0.62010000  1
  H  H3  1  0.53840000  0.15720000  0.12010000  1
  H  H4  1  0.29800000  0.49900000  0.42630000  1
  H  H5  1  0.70200000  0.99900000  0.92630000  1
  H  H6  1  0.06860000  0.39050000  0.31670000  1
  H  H7  1  0.93140000  0.89050000  0.81670000  1
  H  H8  1  0.48330000  0.64800000  0.48820000  1
  H  H9  1  0.51670000  0.14800000  0.98820000  1
  H  H10  1  0.06870000  0.31090000  0.11250000  1
  H  H11  1  0.93130000  0.81090000  0.61250000  1
  H  H12  1  0.46060000  0.87210000  0.66290000  1
  H  H13  1  0.53940000  0.37210000  0.16290000  1
  H  H14  1  0.29210000  0.54400000  0.31020000  1
  H  H15  1  0.70790000  0.04400000  0.81020000  1
  H  H16  1  0.06520000  0.59510000  0.33780000  1
  H  H17  1  0.93480000  0.09510000  0.83780000  1
  H  H18  1  0.21830000  0.72280000  0.41610000  1
  H  H19  1  0.78170000  0.22280000  0.91610000  1
  H  H20  1  0.28250000  0.33210000  0.99070000  1
  H  H21  1  0.71750000  0.83210000  0.49070000  1
  H  H22  1  0.47100000  0.00400000  0.65320000  1
  H  H23  1  0.52900000  0.50400000  0.15320000  1
  H  H24  1  0.21120000  0.08150000  0.73030000  1
  H  H25  1  0.78880000  0.58150000  0.23030000  1
  H  H26  1  0.15360000  0.30550000  0.91280000  1
  H  H27  1  0.84640000  0.80550000  0.41280000  1
  H  H28  1  0.07570000  0.91280000  0.41970000  1
  H  H29  1  0.92430000  0.41280000  0.91970000  1
  H  H30  1  0.07570000  0.58720000  0.08030000  1
  H  H31  1  0.92430000  0.08720000  0.58030000  1
  H  H32  1  0.15360000  0.19450000  0.58720000  1
  H  H33  1  0.84640000  0.69450000  0.08720000  1
  H  H34  1  0.21120000  0.41850000  0.76970000  1
  H  H35  1  0.78880000  0.91850000  0.26970000  1
  H  H36  1  0.47100000  0.49600000  0.84680000  1
  H  H37  1  0.52900000  0.99600000  0.34680000  1
  H  H38  1  0.28250000  0.16790000  0.50930000  1
  H  H39  1  0.71750000  0.66790000  0.00930000  1
  H  H40  1  0.21830000  0.77720000  0.08390000  1
  H  H41  1  0.78170000  0.27720000  0.58390000  1
  H  H42  1  0.06520000  0.90490000  0.16220000  1
  H  H43  1  0.93480000  0.40490000  0.66220000  1
  H  H44  1  0.29210000  0.95600000  0.18980000  1
  H  H45  1  0.70790000  0.45600000  0.68980000  1
  H  H46  1  0.46060000  0.62790000  0.83710000  1
  H  H47  1  0.53940000  0.12790000  0.33710000  1
  H  H48  1  0.06870000  0.18910000  0.38750000  1
  H  H49  1  0.93130000  0.68910000  0.88750000  1
  H  H50  1  0.48330000  0.85200000  0.01180000  1
  H  H51  1  0.51670000  0.35200000  0.51180000  1
  H  H52  1  0.06860000  0.10950000  0.18330000  1
  H  H53  1  0.93140000  0.60950000  0.68330000  1
  H  H54  1  0.29800000  0.00100000  0.07370000  1
  H  H55  1  0.70200000  0.50100000  0.57370000  1
  H  H56  1  0.46160000  0.84280000  0.87990000  1
  H  H57  1  0.53840000  0.34280000  0.37990000  1
  C  C58  1  0.03570000  0.01240000  0.95950000  1
  C  C59  1  0.96430000  0.51240000  0.45950000  1
  C  C60  1  0.35570000  0.68760000  0.59180000  1
  C  C61  1  0.64430000  0.18760000  0.09180000  1
  C  C62  1  0.04300000  0.91390000  0.78400000  1
  C  C63  1  0.95700000  0.41390000  0.28400000  1
  C  C64  1  0.36950000  0.68150000  0.51260000  1
  C  C65  1  0.63050000  0.18150000  0.01260000  1
  C  C66  1  0.04400000  0.77780000  0.58700000  1
  C  C67  1  0.95600000  0.27780000  0.08700000  1
  C  C68  1  0.12860000  0.54260000  0.33400000  1
  C  C69  1  0.87140000  0.04260000  0.83400000  1
  C  C70  1  0.35300000  0.90270000  0.69320000  1
  C  C71  1  0.64700000  0.40270000  0.19320000  1
  C  C72  1  0.04280000  0.99380000  0.78250000  1
  C  C73  1  0.95720000  0.49380000  0.28250000  1
  C  C74  1  0.21170000  0.72620000  0.46970000  1
  C  C75  1  0.78830000  0.22620000  0.96970000  1
  C  C76  1  0.04570000  0.77520000  0.50710000  1
  C  C77  1  0.95430000  0.27520000  0.00710000  1
  C  C78  1  0.36150000  0.98200000  0.68740000  1
  C  C79  1  0.63850000  0.48200000  0.18740000  1
  C  C80  1  0.20620000  0.02790000  0.73290000  1
  C  C81  1  0.79380000  0.52790000  0.23290000  1
  C  C82  1  0.12350000  0.32800000  0.96420000  1
  C  C83  1  0.87650000  0.82800000  0.46420000  1
  C  C84  1  0.06470000  0.46160000  0.00860000  1
  C  C85  1  0.93530000  0.96160000  0.50860000  1
  C  C86  1  0.06470000  0.03840000  0.49140000  1
  C  C87  1  0.93530000  0.53840000  0.99140000  1
  C  C88  1  0.12350000  0.17200000  0.53580000  1
  C  C89  1  0.87650000  0.67200000  0.03580000  1
  C  C90  1  0.20620000  0.47210000  0.76710000  1
  C  C91  1  0.79380000  0.97210000  0.26710000  1
  C  C92  1  0.36150000  0.51800000  0.81260000  1
  C  C93  1  0.63850000  0.01800000  0.31260000  1
  C  C94  1  0.04570000  0.72480000  0.99290000  1
  C  C95  1  0.95430000  0.22480000  0.49290000  1
  C  C96  1  0.21170000  0.77380000  0.03030000  1
  C  C97  1  0.78830000  0.27380000  0.53030000  1
  C  C98  1  0.04280000  0.50620000  0.71750000  1
  C  C99  1  0.95720000  0.00620000  0.21750000  1
  C  C100  1  0.35300000  0.59730000  0.80680000  1
  C  C101  1  0.64700000  0.09730000  0.30680000  1
  C  C102  1  0.12860000  0.95740000  0.16600000  1
  C  C103  1  0.87140000  0.45740000  0.66600000  1
  C  C104  1  0.04400000  0.72220000  0.91300000  1
  C  C105  1  0.95600000  0.22220000  0.41300000  1
  C  C106  1  0.36950000  0.81850000  0.98740000  1
  C  C107  1  0.63050000  0.31850000  0.48740000  1
  C  C108  1  0.04300000  0.58610000  0.71600000  1
  C  C109  1  0.95700000  0.08610000  0.21600000  1
  C  C110  1  0.35570000  0.81240000  0.90820000  1
  C  C111  1  0.64430000  0.31240000  0.40820000  1
  C  C112  1  0.03570000  0.48760000  0.54050000  1
  C  C113  1  0.96430000  0.98760000  0.04050000  1
  Br  Br114  1  0.30329000  0.25000000  0.25000000  1
  Br  Br115  1  0.69671000  0.75000000  0.75000000  1
  N  N116  1  0.15440000  0.51450000  0.41140000  1
  N  N117  1  0.84560000  0.01450000  0.91140000  1
  N  N118  1  0.19600000  0.73530000  0.63000000  1
  N  N119  1  0.80400000  0.23530000  0.13000000  1
  N  N120  1  0.19640000  0.86840000  0.74060000  1
  N  N121  1  0.80360000  0.36840000  0.24060000  1
  N  N122  1  0.02000000  0.40440000  0.95820000  1
  N  N123  1  0.98000000  0.90440000  0.45820000  1
  N  N124  1  0.02000000  0.09560000  0.54180000  1
  N  N125  1  0.98000000  0.59560000  0.04180000  1
  N  N126  1  0.19640000  0.63160000  0.75940000  1
  N  N127  1  0.80360000  0.13160000  0.25940000  1
  N  N128  1  0.19600000  0.76470000  0.87000000  1
  N  N129  1  0.80400000  0.26470000  0.37000000  1
  N  N130  1  0.15440000  0.98550000  0.08860000  1
  N  N131  1  0.84560000  0.48550000  0.58860000  1
  O  O132  1  0.25330000  0.02810000  0.94340000  1
  O  O133  1  0.74670000  0.52810000  0.44340000  1
  O  O134  1  0.20140000  0.45760000  0.06530000  1
  O  O135  1  0.79860000  0.95760000  0.56530000  1
  O  O136  1  0.20140000  0.04240000  0.43470000  1
  O  O137  1  0.79860000  0.54240000  0.93470000  1
  O  O138  1  0.25330000  0.47190000  0.55660000  1
  O  O139  1  0.74670000  0.97190000  0.05660000  1
