# generated using pymatgen
data_BeH4(C3O2)4
_symmetry_space_group_name_H-M   'P 1'
_cell_length_a   16.71878209
_cell_length_b   16.71860000
_cell_length_c   16.71860000
_cell_angle_alpha   109.47100000
_cell_angle_beta   109.47144127
_cell_angle_gamma   109.47144127
_symmetry_Int_Tables_number   1
_chemical_formula_structural   BeH4(C3O2)4
_chemical_formula_sum   'Be6 H24 C72 O48'
_cell_volume   3597.33910288
_cell_formula_units_Z   6
loop_
 _symmetry_equiv_pos_site_id
 _symmetry_equiv_pos_as_xyz
  1  'x, y, z'
loop_
 _atom_site_type_symbol
 _atom_site_label
 _atom_site_symmetry_multiplicity
 _atom_site_fract_x
 _atom_site_fract_y
 _atom_site_fract_z
 _atom_site_occupancy
  Be  Be0  1  0.62500000  0.87500000  0.75000000  1
  Be  Be1  1  0.37500000  0.25000000  0.62500000  1
  Be  Be2  1  0.87500000  0.62500000  0.25000000  1
  Be  Be3  1  0.75000000  0.12500000  0.37500000  1
  Be  Be4  1  0.12500000  0.75000000  0.87500000  1
  Be  Be5  1  0.25000000  0.37500000  0.12500000  1
  H  H6  1  0.01350000  0.66220000  0.01710000  1
  H  H7  1  0.48290000  0.64510000  0.49640000  1
  H  H8  1  0.33780000  0.35130000  0.35490000  1
  H  H9  1  0.01710000  0.51350000  0.16220000  1
  H  H10  1  0.51350000  0.01710000  0.66220000  1
  H  H11  1  0.48650000  0.50360000  0.64870000  1
  H  H12  1  0.14510000  0.99640000  0.48290000  1
  H  H13  1  0.64510000  0.48290000  0.99640000  1
  H  H14  1  0.64870000  0.98650000  0.00360000  1
  H  H15  1  0.00360000  0.14870000  0.48650000  1
  H  H16  1  0.85130000  0.85490000  0.33780000  1
  H  H17  1  0.35490000  0.83780000  0.85130000  1
  H  H18  1  0.35130000  0.33780000  0.85490000  1
  H  H19  1  0.83780000  0.35490000  0.35130000  1
  H  H20  1  0.98650000  0.64870000  0.50360000  1
  H  H21  1  0.50360000  0.48650000  0.14870000  1
  H  H22  1  0.49640000  0.98290000  0.14510000  1
  H  H23  1  0.98290000  0.49640000  0.64510000  1
  H  H24  1  0.14870000  0.00360000  0.98650000  1
  H  H25  1  0.16220000  0.51710000  0.01350000  1
  H  H26  1  0.66220000  0.01350000  0.51710000  1
  H  H27  1  0.85490000  0.85130000  0.83780000  1
  H  H28  1  0.99640000  0.14510000  0.98290000  1
  H  H29  1  0.51710000  0.16220000  0.51350000  1
  C  C30  1  0.03418000  0.62319000  0.03629000  1
  C  C31  1  0.59299000  0.00583000  0.59542000  1
  C  C32  1  0.62700000  0.94490000  0.63170000  1
  C  C33  1  0.40458000  0.49757000  0.41041000  1
  C  C34  1  0.46371000  0.58690000  0.49789000  1
  C  C35  1  0.37681000  0.41099000  0.41310000  1
  C  C36  1  0.81320000  0.99530000  0.86830000  1
  C  C37  1  0.03629000  0.53418000  0.12319000  1
  C  C38  1  0.50583000  0.09542000  0.59299000  1
  C  C39  1  0.53418000  0.03629000  0.62319000  1
  C  C40  1  0.00583000  0.59299000  0.09542000  1
  C  C41  1  0.49417000  0.58959000  0.58716000  1
  C  C42  1  0.40701000  0.41284000  0.50243000  1
  C  C43  1  0.46582000  0.50211000  0.58901000  1
  C  C44  1  0.55510000  0.68680000  0.68210000  1
  C  C45  1  0.37300000  0.31790000  0.50470000  1
  C  C46  1  0.44490000  0.13170000  0.62700000  1
  C  C47  1  0.94490000  0.62700000  0.13170000  1
  C  C48  1  0.50470000  0.87300000  0.81790000  1
  C  C49  1  0.49530000  0.36830000  0.81320000  1
  C  C50  1  0.18680000  0.18210000  0.55510000  1
  C  C51  1  0.99530000  0.81320000  0.36830000  1
  C  C52  1  0.08690000  0.99789000  0.46371000  1
  C  C53  1  0.08959000  0.08716000  0.49417000  1
  C  C54  1  0.99757000  0.91041000  0.40458000  1
  C  C55  1  0.50243000  0.90701000  0.91284000  1
  C  C56  1  0.58690000  0.46371000  0.99789000  1
  C  C57  1  0.49757000  0.40458000  0.91041000  1
  C  C58  1  0.58901000  0.96582000  0.00211000  1
  C  C59  1  0.87300000  0.50470000  0.31790000  1
  C  C60  1  0.00211000  0.08901000  0.46582000  1
  C  C61  1  0.91099000  0.91310000  0.37681000  1
  C  C62  1  0.91284000  0.00243000  0.40701000  1
  C  C63  1  0.68680000  0.55510000  0.18210000  1
  C  C64  1  0.58959000  0.49417000  0.08716000  1
  C  C65  1  0.41310000  0.87681000  0.91099000  1
  C  C66  1  0.41099000  0.37681000  0.91310000  1
  C  C67  1  0.58716000  0.99417000  0.08959000  1
  C  C68  1  0.68210000  0.05510000  0.18680000  1
  C  C69  1  0.90701000  0.50243000  0.41284000  1
  C  C70  1  0.87681000  0.41310000  0.41099000  1
  C  C71  1  0.96582000  0.58901000  0.50211000  1
  C  C72  1  0.81790000  0.00470000  0.37300000  1
  C  C73  1  0.50211000  0.46582000  0.08901000  1
  C  C74  1  0.41041000  0.90458000  0.99757000  1
  C  C75  1  0.49789000  0.96371000  0.08690000  1
  C  C76  1  0.41284000  0.40701000  0.00243000  1
  C  C77  1  0.90458000  0.41041000  0.49757000  1
  C  C78  1  0.99417000  0.58716000  0.58959000  1
  C  C79  1  0.96371000  0.49789000  0.58690000  1
  C  C80  1  0.86830000  0.31320000  0.49530000  1
  C  C81  1  0.05510000  0.68210000  0.68680000  1
  C  C82  1  0.31320000  0.86830000  0.99530000  1
  C  C83  1  0.31790000  0.37300000  0.00470000  1
  C  C84  1  0.63170000  0.12700000  0.44490000  1
  C  C85  1  0.12700000  0.63170000  0.94490000  1
  C  C86  1  0.00470000  0.81790000  0.87300000  1
  C  C87  1  0.18210000  0.18680000  0.05510000  1
  C  C88  1  0.08901000  0.00211000  0.96582000  1
  C  C89  1  0.00243000  0.91284000  0.90701000  1
  C  C90  1  0.08716000  0.08959000  0.99417000  1
  C  C91  1  0.59542000  0.09299000  0.50583000  1
  C  C92  1  0.12319000  0.53629000  0.03418000  1
  C  C93  1  0.09299000  0.59542000  0.00583000  1
  C  C94  1  0.62319000  0.03418000  0.53629000  1
  C  C95  1  0.36830000  0.49530000  0.31320000  1
  C  C96  1  0.91310000  0.91099000  0.87681000  1
  C  C97  1  0.99789000  0.08690000  0.96371000  1
  C  C98  1  0.91041000  0.99757000  0.90458000  1
  C  C99  1  0.13170000  0.44490000  0.12700000  1
  C  C100  1  0.09542000  0.50583000  0.09299000  1
  C  C101  1  0.53629000  0.12319000  0.53418000  1
  O  O102  1  0.74027000  0.91080000  0.80955000  1
  O  O103  1  0.09810000  0.41090000  0.17120000  1
  O  O104  1  0.81280000  0.07310000  0.90190000  1
  O  O105  1  0.60125000  0.93072000  0.69045000  1
  O  O106  1  0.32880000  0.23970000  0.42690000  1
  O  O107  1  0.56928000  0.75973000  0.67053000  1
  O  O108  1  0.43072000  0.19045000  0.60125000  1
  O  O109  1  0.58910000  0.68720000  0.76030000  1
  O  O110  1  0.91090000  0.67120000  0.09810000  1
  O  O111  1  0.39875000  0.32947000  0.58920000  1
  O  O112  1  0.57310000  0.40190000  0.81280000  1
  O  O113  1  0.58920000  0.89875000  0.82947000  1
  O  O114  1  0.93072000  0.60125000  0.19045000  1
  O  O115  1  0.41090000  0.09810000  0.67120000  1
  O  O116  1  0.25973000  0.17053000  0.56928000  1
  O  O117  1  0.42690000  0.82880000  0.73970000  1
  O  O118  1  0.07310000  0.81280000  0.40190000  1
  O  O119  1  0.41080000  0.30955000  0.74027000  1
  O  O120  1  0.91080000  0.74027000  0.30955000  1
  O  O121  1  0.18720000  0.26030000  0.58910000  1
  O  O122  1  0.75973000  0.56928000  0.17053000  1
  O  O123  1  0.82880000  0.42690000  0.23970000  1
  O  O124  1  0.76030000  0.08910000  0.18720000  1
  O  O125  1  0.89875000  0.58920000  0.32947000  1
  O  O126  1  0.82947000  0.08920000  0.39875000  1
  O  O127  1  0.68720000  0.58910000  0.26030000  1
  O  O128  1  0.73970000  0.92690000  0.32880000  1
  O  O129  1  0.67053000  0.06928000  0.25973000  1
  O  O130  1  0.08910000  0.76030000  0.68720000  1
  O  O131  1  0.80955000  0.24027000  0.41080000  1
  O  O132  1  0.24027000  0.80955000  0.91080000  1
  O  O133  1  0.90190000  0.31280000  0.57310000  1
  O  O134  1  0.23970000  0.32880000  0.92690000  1
  O  O135  1  0.06928000  0.67053000  0.75973000  1
  O  O136  1  0.17120000  0.59810000  0.91090000  1
  O  O137  1  0.69045000  0.10125000  0.43072000  1
  O  O138  1  0.32947000  0.39875000  0.08920000  1
  O  O139  1  0.31280000  0.90190000  0.07310000  1
  O  O140  1  0.08920000  0.82947000  0.89875000  1
  O  O141  1  0.59810000  0.17120000  0.41090000  1
  O  O142  1  0.26030000  0.18720000  0.08910000  1
  O  O143  1  0.10125000  0.69045000  0.93072000  1
  O  O144  1  0.17053000  0.25973000  0.06928000  1
  O  O145  1  0.92690000  0.73970000  0.82880000  1
  O  O146  1  0.19045000  0.43072000  0.10125000  1
  O  O147  1  0.40190000  0.57310000  0.31280000  1
  O  O148  1  0.67120000  0.91090000  0.59810000  1
  O  O149  1  0.30955000  0.41080000  0.24027000  1
