# generated using pymatgen
data_NdP3H15(CO)12
_symmetry_space_group_name_H-M   'P 1'
_cell_length_a   10.39120000
_cell_length_b   11.87230000
_cell_length_c   11.87900000
_cell_angle_alpha   82.37900000
_cell_angle_beta   87.72500000
_cell_angle_gamma   81.66600000
_symmetry_Int_Tables_number   1
_chemical_formula_structural   NdP3H15(CO)12
_chemical_formula_sum   'Nd2 P6 H30 C24 O24'
_cell_volume   1436.88518276
_cell_formula_units_Z   2
loop_
 _symmetry_equiv_pos_site_id
 _symmetry_equiv_pos_as_xyz
  1  'x, y, z'
loop_
 _atom_site_type_symbol
 _atom_site_label
 _atom_site_symmetry_multiplicity
 _atom_site_fract_x
 _atom_site_fract_y
 _atom_site_fract_z
 _atom_site_occupancy
  Nd  Nd0  1  0.01896000  0.92262000  0.76071000  1
  Nd  Nd1  1  0.98104000  0.07738000  0.23929000  1
  P  P2  1  0.11861000  0.11678000  0.50462000  1
  P  P3  1  0.15370000  0.89256000  0.03464000  1
  P  P4  1  0.29801000  0.68335000  0.72194000  1
  P  P5  1  0.70199000  0.31665000  0.27806000  1
  P  P6  1  0.84630000  0.10744000  0.96536000  1
  P  P7  1  0.88139000  0.88322000  0.49538000  1
  H  H8  1  0.17990000  0.08460000  0.97650000  1
  H  H9  1  0.18040000  0.67110000  0.46250000  1
  H  H10  1  0.20250000  0.25640000  0.44840000  1
  H  H11  1  0.20260000  0.92680000  0.48460000  1
  H  H12  1  0.24310000  0.05150000  0.78870000  1
  H  H13  1  0.24410000  0.73160000  0.04320000  1
  H  H14  1  0.24510000  0.94660000  0.31310000  1
  H  H15  1  0.29660000  0.45500000  0.56000000  1
  H  H16  1  0.32880000  0.75370000  0.53210000  1
  H  H17  1  0.34620000  0.11840000  0.09260000  1
  H  H18  1  0.35780000  0.93020000  0.63800000  1
  H  H19  1  0.42660000  0.07090000  0.32000000  1
  H  H20  1  0.43510000  0.89430000  0.86750000  1
  H  H21  1  0.44870000  0.66970000  0.82120000  1
  H  H22  1  0.45620000  0.31410000  0.50520000  1
  H  H23  1  0.54380000  0.68590000  0.49480000  1
  H  H24  1  0.55130000  0.33030000  0.17880000  1
  H  H25  1  0.56490000  0.10570000  0.13250000  1
  H  H26  1  0.57340000  0.92910000  0.68000000  1
  H  H27  1  0.64220000  0.06980000  0.36200000  1
  H  H28  1  0.65380000  0.88160000  0.90740000  1
  H  H29  1  0.67120000  0.24630000  0.46790000  1
  H  H30  1  0.70340000  0.54500000  0.44000000  1
  H  H31  1  0.75490000  0.05340000  0.68690000  1
  H  H32  1  0.75590000  0.26840000  0.95680000  1
  H  H33  1  0.75690000  0.94850000  0.21130000  1
  H  H34  1  0.79740000  0.07320000  0.51540000  1
  H  H35  1  0.79750000  0.74360000  0.55160000  1
  H  H36  1  0.81960000  0.32890000  0.53750000  1
  H  H37  1  0.82010000  0.91540000  0.02350000  1
  C  C38  1  0.22570000  0.01260000  0.95410000  1
  C  C39  1  0.22770000  0.99990000  0.44880000  1
  C  C40  1  0.30560000  0.68010000  0.56860000  1
  C  C41  1  0.36890000  0.00710000  0.97620000  1
  C  C42  1  0.36950000  0.00040000  0.47390000  1
  C  C43  1  0.37820000  0.47330000  0.53580000  1
  C  C44  1  0.40480000  0.58580000  0.53210000  1
  C  C45  1  0.40780000  0.07070000  0.05540000  1
  C  C46  1  0.41460000  0.95830000  0.58220000  1
  C  C47  1  0.45570000  0.04210000  0.39260000  1
  C  C48  1  0.46100000  0.93680000  0.92080000  1
  C  C49  1  0.47430000  0.38880000  0.50310000  1
  C  C50  1  0.52570000  0.61120000  0.49690000  1
  C  C51  1  0.53900000  0.06320000  0.07920000  1
  C  C52  1  0.54430000  0.95790000  0.60740000  1
  C  C53  1  0.58540000  0.04170000  0.41780000  1
  C  C54  1  0.59220000  0.92930000  0.94460000  1
  C  C55  1  0.59520000  0.41420000  0.46790000  1
  C  C56  1  0.62180000  0.52670000  0.46420000  1
  C  C57  1  0.63050000  0.99960000  0.52610000  1
  C  C58  1  0.63110000  0.99290000  0.02380000  1
  C  C59  1  0.69440000  0.31990000  0.43140000  1
  C  C60  1  0.77230000  0.00010000  0.55120000  1
  C  C61  1  0.77430000  0.98740000  0.04590000  1
  O  O62  1  0.01090000  0.15360000  0.42080000  1
  O  O63  1  0.05590000  0.85890000  0.96030000  1
  O  O64  1  0.08170000  0.07310000  0.62400000  1
  O  O65  1  0.10600000  0.92970000  0.14660000  1
  O  O66  1  0.17910000  0.66940000  0.53170000  1
  O  O67  1  0.19810000  0.21940000  0.51150000  1
  O  O68  1  0.20010000  0.78430000  0.74090000  1
  O  O69  1  0.20170000  0.01000000  0.83620000  1
  O  O70  1  0.20440000  0.00980000  0.33000000  1
  O  O71  1  0.26090000  0.57050000  0.77990000  1
  O  O72  1  0.26660000  0.79060000  0.06000000  1
  O  O73  1  0.43560000  0.69880000  0.75530000  1
  O  O74  1  0.56440000  0.30120000  0.24470000  1
  O  O75  1  0.73340000  0.20940000  0.94000000  1
  O  O76  1  0.73910000  0.42950000  0.22010000  1
  O  O77  1  0.79560000  0.99020000  0.67000000  1
  O  O78  1  0.79830000  0.99000000  0.16380000  1
  O  O79  1  0.79990000  0.21570000  0.25910000  1
  O  O80  1  0.80190000  0.78060000  0.48850000  1
  O  O81  1  0.82090000  0.33060000  0.46830000  1
  O  O82  1  0.89400000  0.07030000  0.85340000  1
  O  O83  1  0.91830000  0.92690000  0.37600000  1
  O  O84  1  0.94410000  0.14110000  0.03970000  1
  O  O85  1  0.98910000  0.84640000  0.57920000  1
