# generated using pymatgen
data_Zn3H28C40(N3O7)2
_symmetry_space_group_name_H-M   'P 1'
_cell_length_a   13.48670000
_cell_length_b   13.70570000
_cell_length_c   14.79490000
_cell_angle_alpha   108.14900000
_cell_angle_beta   107.55600000
_cell_angle_gamma   109.44000000
_symmetry_Int_Tables_number   1
_chemical_formula_structural   Zn3H28C40(N3O7)2
_chemical_formula_sum   'Zn6 H56 C80 N12 O28'
_cell_volume   2185.54736809
_cell_formula_units_Z   2
loop_
 _symmetry_equiv_pos_site_id
 _symmetry_equiv_pos_as_xyz
  1  'x, y, z'
loop_
 _atom_site_type_symbol
 _atom_site_label
 _atom_site_symmetry_multiplicity
 _atom_site_fract_x
 _atom_site_fract_y
 _atom_site_fract_z
 _atom_site_occupancy
  Zn  Zn0  1  0.03803000  0.26345000  0.89718000  1
  Zn  Zn1  1  0.35915000  0.63373000  0.89718000  1
  Zn  Zn2  1  0.50000000  0.50000000  0.00000000  1
  Zn  Zn3  1  0.64085000  0.36627000  0.10282000  1
  Zn  Zn4  1  0.96197000  0.73655000  0.10282000  1
  Zn  Zn5  1  0.00000000  0.50000000  0.00000000  1
  H  H6  1  0.04860000  0.30080000  0.44180000  1
  H  H7  1  0.05830000  0.00380000  0.62900000  1
  H  H8  1  0.07070000  0.62520000  0.62900000  1
  H  H9  1  0.07730000  0.85890000  0.34200000  1
  H  H10  1  0.09090000  0.43370000  0.87780000  1
  H  H11  1  0.10680000  0.85900000  0.55820000  1
  H  H12  1  0.10720000  0.22200000  0.18500000  1
  H  H13  1  0.11910000  0.60600000  0.25100000  1
  H  H14  1  0.20670000  0.89450000  0.14520000  1
  H  H15  1  0.23530000  0.51690000  0.65800000  1
  H  H16  1  0.25520000  0.99470000  0.48580000  1
  H  H17  1  0.25710000  0.64410000  0.05960000  1
  H  H18  1  0.26300000  0.42560000  0.20060000  1
  H  H19  1  0.26940000  0.50890000  0.51420000  1
  H  H20  1  0.28690000  0.44410000  0.87780000  1
  H  H21  1  0.29560000  0.73240000  0.39700000  1
  H  H22  1  0.30250000  0.41550000  0.05960000  1
  H  H23  1  0.32270000  0.50260000  0.38940000  1
  H  H24  1  0.36810000  0.35500000  0.74900000  1
  H  H25  1  0.38890000  0.02710000  0.28360000  1
  H  H26  1  0.39470000  0.25650000  0.28360000  1
  H  H27  1  0.39860000  0.33540000  0.60300000  1
  H  H28  1  0.42220000  0.03700000  0.81500000  1
  H  H29  1  0.43330000  0.11320000  0.61060000  1
  H  H30  1  0.43760000  0.77500000  0.20060000  1
  H  H31  1  0.43850000  0.25070000  0.14520000  1
  H  H32  1  0.45100000  0.32850000  0.47340000  1
  H  H33  1  0.47760000  0.85510000  0.52660000  1
  H  H34  1  0.52240000  0.14490000  0.47340000  1
  H  H35  1  0.54900000  0.67150000  0.52660000  1
  H  H36  1  0.56150000  0.74930000  0.85480000  1
  H  H37  1  0.56240000  0.22500000  0.79940000  1
  H  H38  1  0.56670000  0.88680000  0.38940000  1
  H  H39  1  0.57780000  0.96300000  0.18500000  1
  H  H40  1  0.60140000  0.66460000  0.39700000  1
  H  H41  1  0.60530000  0.74350000  0.71640000  1
  H  H42  1  0.61110000  0.97290000  0.71640000  1
  H  H43  1  0.63190000  0.64500000  0.25100000  1
  H  H44  1  0.67730000  0.49740000  0.61060000  1
  H  H45  1  0.69750000  0.58450000  0.94040000  1
  H  H46  1  0.70440000  0.26760000  0.60300000  1
  H  H47  1  0.71310000  0.55590000  0.12220000  1
  H  H48  1  0.73060000  0.49110000  0.48580000  1
  H  H49  1  0.73700000  0.57440000  0.79940000  1
  H  H50  1  0.74290000  0.35590000  0.94040000  1
  H  H51  1  0.74480000  0.00530000  0.51420000  1
  H  H52  1  0.76470000  0.48310000  0.34200000  1
  H  H53  1  0.79330000  0.10550000  0.85480000  1
  H  H54  1  0.88090000  0.39400000  0.74900000  1
  H  H55  1  0.89280000  0.77800000  0.81500000  1
  H  H56  1  0.89320000  0.14100000  0.44180000  1
  H  H57  1  0.90910000  0.56630000  0.12220000  1
  H  H58  1  0.92270000  0.14110000  0.65800000  1
  H  H59  1  0.92930000  0.37480000  0.37100000  1
  H  H60  1  0.94170000  0.99620000  0.37100000  1
  H  H61  1  0.95140000  0.69920000  0.55820000  1
  C  C62  1  0.00240000  0.29950000  0.18060000  1
  C  C63  1  0.00700000  0.69350000  0.92160000  1
  C  C64  1  0.03540000  0.65610000  0.66680000  1
  C  C65  1  0.03610000  0.30000000  0.37620000  1
  C  C66  1  0.05460000  0.65790000  0.76500000  1
  C  C67  1  0.07180000  0.25350000  0.22200000  1
  C  C68  1  0.08730000  0.25580000  0.31900000  1
  C  C69  1  0.13140000  0.01070000  0.66680000  1
  C  C70  1  0.13670000  0.61180000  0.80620000  1
  C  C71  1  0.14080000  0.89360000  0.33000000  1
  C  C72  1  0.15990000  0.92380000  0.62380000  1
  C  C73  1  0.16950000  0.19440000  0.80620000  1
  C  C74  1  0.18450000  0.64000000  0.24100000  1
  C  C75  1  0.21040000  0.10710000  0.76500000  1
  C  C76  1  0.21650000  0.91380000  0.21460000  1
  C  C77  1  0.24780000  0.97490000  0.41720000  1
  C  C78  1  0.26510000  0.66250000  0.12820000  1
  C  C79  1  0.26830000  0.93680000  0.68100000  1
  C  C80  1  0.29000000  0.71670000  0.32920000  1
  C  C81  1  0.31080000  0.56360000  0.67000000  1
  C  C82  1  0.32180000  0.11890000  0.81940000  1
  C  C83  1  0.32660000  0.99450000  0.29780000  1
  C  C84  1  0.33060000  0.55770000  0.58280000  1
  C  C85  1  0.33900000  0.47150000  0.21280000  1
  C  C86  1  0.34520000  0.02730000  0.40160000  1
  C  C87  1  0.34980000  0.03150000  0.77800000  1
  C  C88  1  0.36310000  0.46570000  0.12820000  1
  C  C89  1  0.37380000  0.74130000  0.21280000  1
  C  C90  1  0.38940000  0.77150000  0.31740000  1
  C  C91  1  0.39940000  0.55200000  0.40660000  1
  C  C92  1  0.41460000  0.22810000  0.92160000  1
  C  C93  1  0.42800000  0.54590000  0.31740000  1
  C  C94  1  0.44350000  0.39900000  0.75900000  1
  C  C95  1  0.44360000  0.62570000  0.59840000  1
  C  C96  1  0.46080000  0.38750000  0.67080000  1
  C  C97  1  0.46310000  0.11190000  0.49080000  1
  C  C98  1  0.47120000  0.30330000  0.29780000  1
  C  C99  1  0.47230000  0.62110000  0.50920000  1
  C  C100  1  0.49280000  0.14540000  0.59340000  1
  C  C101  1  0.49810000  0.30080000  0.21460000  1
  C  C102  1  0.50190000  0.69920000  0.78540000  1
  C  C103  1  0.50720000  0.85460000  0.40660000  1
  C  C104  1  0.52770000  0.37890000  0.49080000  1
  C  C105  1  0.52880000  0.69670000  0.70220000  1
  C  C106  1  0.53690000  0.88810000  0.50920000  1
  C  C107  1  0.53920000  0.61250000  0.32920000  1
  C  C108  1  0.55640000  0.37430000  0.40160000  1
  C  C109  1  0.55650000  0.60100000  0.24100000  1
  C  C110  1  0.57200000  0.45410000  0.68260000  1
  C  C111  1  0.58540000  0.77190000  0.07840000  1
  C  C112  1  0.60060000  0.44800000  0.59340000  1
  C  C113  1  0.61060000  0.22850000  0.68260000  1
  C  C114  1  0.62620000  0.25870000  0.78720000  1
  C  C115  1  0.63690000  0.53430000  0.87180000  1
  C  C116  1  0.65020000  0.96850000  0.22200000  1
  C  C117  1  0.65480000  0.97270000  0.59840000  1
  C  C118  1  0.66100000  0.52850000  0.78720000  1
  C  C119  1  0.66940000  0.44230000  0.41720000  1
  C  C120  1  0.67340000  0.00550000  0.70220000  1
  C  C121  1  0.67820000  0.88110000  0.18060000  1
  C  C122  1  0.68920000  0.43640000  0.33000000  1
  C  C123  1  0.71000000  0.28330000  0.67080000  1
  C  C124  1  0.73170000  0.06320000  0.31900000  1
  C  C125  1  0.73490000  0.33750000  0.87180000  1
  C  C126  1  0.75220000  0.02510000  0.58280000  1
  C  C127  1  0.78350000  0.08620000  0.78540000  1
  C  C128  1  0.78960000  0.89290000  0.23500000  1
  C  C129  1  0.81550000  0.36000000  0.75900000  1
  C  C130  1  0.83050000  0.80560000  0.19380000  1
  C  C131  1  0.84010000  0.07620000  0.37620000  1
  C  C132  1  0.85920000  0.10640000  0.67000000  1
  C  C133  1  0.86330000  0.38820000  0.19380000  1
  C  C134  1  0.86860000  0.98930000  0.33320000  1
  C  C135  1  0.91270000  0.74420000  0.68100000  1
  C  C136  1  0.92820000  0.74650000  0.77800000  1
  C  C137  1  0.94540000  0.34210000  0.23500000  1
  C  C138  1  0.96390000  0.70000000  0.62380000  1
  C  C139  1  0.96460000  0.34390000  0.33320000  1
  C  C140  1  0.99300000  0.30650000  0.07840000  1
  C  C141  1  0.99760000  0.70050000  0.81940000  1
  N  N142  1  0.12339000  0.86189000  0.22838000  1
  N  N143  1  0.16390000  0.21160000  0.36540000  1
  N  N144  1  0.16984000  0.61074000  0.14048000  1
  N  N145  1  0.29850000  0.84620000  0.63460000  1
  N  N146  1  0.39501000  0.63351000  0.77162000  1
  N  N147  1  0.47064000  0.52974000  0.14048000  1
  N  N148  1  0.52936000  0.47026000  0.85952000  1
  N  N149  1  0.60499000  0.36649000  0.22838000  1
  N  N150  1  0.70150000  0.15380000  0.36540000  1
  N  N151  1  0.83016000  0.38926000  0.85952000  1
  N  N152  1  0.83610000  0.78840000  0.63460000  1
  N  N153  1  0.87661000  0.13811000  0.77162000  1
  O  O154  1  0.02983000  0.24913000  0.02426000  1
  O  O155  1  0.04643000  0.62963000  0.94286000  1
  O  O156  1  0.07479000  0.41789000  0.92438000  1
  O  O157  1  0.10444000  0.50724000  0.76468000  1
  O  O158  1  0.13821000  0.18841000  0.87862000  1
  O  O159  1  0.16024000  0.25744000  0.76468000  1
  O  O160  1  0.17060000  0.20480000  0.44640000  1
  O  O161  1  0.21840000  0.18370000  0.32100000  1
  O  O162  1  0.22420000  0.75840000  0.55360000  1
  O  O163  1  0.24041000  0.69021000  0.87862000  1
  O  O164  1  0.34959000  0.50649000  0.92438000  1
  O  O165  1  0.39643000  0.31323000  0.94286000  1
  O  O166  1  0.39740000  0.86270000  0.67900000  1
  O  O167  1  0.49443000  0.77513000  0.02426000  1
  O  O168  1  0.50557000  0.22487000  0.97574000  1
  O  O169  1  0.60260000  0.13730000  0.32100000  1
  O  O170  1  0.60357000  0.68677000  0.05714000  1
  O  O171  1  0.65041000  0.49351000  0.07562000  1
  O  O172  1  0.75959000  0.30979000  0.12138000  1
  O  O173  1  0.77580000  0.24160000  0.44640000  1
  O  O174  1  0.78160000  0.81630000  0.67900000  1
  O  O175  1  0.82940000  0.79520000  0.55360000  1
  O  O176  1  0.83976000  0.74256000  0.23532000  1
  O  O177  1  0.86179000  0.81159000  0.12138000  1
  O  O178  1  0.89556000  0.49276000  0.23532000  1
  O  O179  1  0.92521000  0.58211000  0.07562000  1
  O  O180  1  0.95357000  0.37037000  0.05714000  1
  O  O181  1  0.97017000  0.75087000  0.97574000  1
