# generated using pymatgen
data_InH4C12(SO4)2
_symmetry_space_group_name_H-M   'P 1'
_cell_length_a   13.56420000
_cell_length_b   13.56420000
_cell_length_c   15.64250000
_cell_angle_alpha   90.00000000
_cell_angle_beta   90.00000000
_cell_angle_gamma   90.00000000
_symmetry_Int_Tables_number   1
_chemical_formula_structural   InH4C12(SO4)2
_chemical_formula_sum   'In4 H16 C48 S8 O32'
_cell_volume   2878.02480725
_cell_formula_units_Z   4
loop_
 _symmetry_equiv_pos_site_id
 _symmetry_equiv_pos_as_xyz
  1  'x, y, z'
loop_
 _atom_site_type_symbol
 _atom_site_label
 _atom_site_symmetry_multiplicity
 _atom_site_fract_x
 _atom_site_fract_y
 _atom_site_fract_z
 _atom_site_occupancy
  In  In0  1  0.07660000  0.50000000  0.25000000  1
  In  In1  1  0.50000000  0.07660000  0.00000000  1
  In  In2  1  0.50000000  0.92340000  0.50000000  1
  In  In3  1  0.92340000  0.50000000  0.75000000  1
  H  H4  1  0.11550000  0.42910000  0.01020000  1
  H  H5  1  0.11550000  0.57090000  0.48980000  1
  H  H6  1  0.25790000  0.34020000  0.06820000  1
  H  H7  1  0.25790000  0.65980000  0.43180000  1
  H  H8  1  0.34020000  0.25790000  0.18180000  1
  H  H9  1  0.34020000  0.74210000  0.31820000  1
  H  H10  1  0.42910000  0.11550000  0.23980000  1
  H  H11  1  0.42910000  0.88450000  0.26020000  1
  H  H12  1  0.57090000  0.11550000  0.76020000  1
  H  H13  1  0.57090000  0.88450000  0.73980000  1
  H  H14  1  0.65980000  0.25790000  0.81820000  1
  H  H15  1  0.65980000  0.74210000  0.68180000  1
  H  H16  1  0.74210000  0.34020000  0.93180000  1
  H  H17  1  0.74210000  0.65980000  0.56820000  1
  H  H18  1  0.88450000  0.42910000  0.98980000  1
  H  H19  1  0.88450000  0.57090000  0.51020000  1
  C  C20  1  0.05790000  0.40620000  0.84000000  1
  C  C21  1  0.05790000  0.59380000  0.66000000  1
  C  C22  1  0.13520000  0.36320000  0.89570000  1
  C  C23  1  0.13520000  0.63680000  0.60430000  1
  C  C24  1  0.15290000  0.38450000  0.97870000  1
  C  C25  1  0.15290000  0.61550000  0.52130000  1
  C  C26  1  0.20110000  0.35550000  0.28240000  1
  C  C27  1  0.20110000  0.64450000  0.21760000  1
  C  C28  1  0.23420000  0.33220000  0.01280000  1
  C  C29  1  0.23420000  0.66780000  0.48720000  1
  C  C30  1  0.26910000  0.27300000  0.29490000  1
  C  C31  1  0.26910000  0.72700000  0.20510000  1
  C  C32  1  0.27300000  0.26910000  0.95510000  1
  C  C33  1  0.27300000  0.73090000  0.54490000  1
  C  C34  1  0.33220000  0.23420000  0.23720000  1
  C  C35  1  0.33220000  0.76580000  0.26280000  1
  C  C36  1  0.35550000  0.20110000  0.96760000  1
  C  C37  1  0.35550000  0.79890000  0.53240000  1
  C  C38  1  0.36320000  0.13520000  0.35430000  1
  C  C39  1  0.36320000  0.86480000  0.14570000  1
  C  C40  1  0.38450000  0.15290000  0.27130000  1
  C  C41  1  0.38450000  0.84710000  0.22870000  1
  C  C42  1  0.40620000  0.05790000  0.41000000  1
  C  C43  1  0.40620000  0.94210000  0.09000000  1
  C  C44  1  0.59380000  0.05790000  0.59000000  1
  C  C45  1  0.59380000  0.94210000  0.91000000  1
  C  C46  1  0.61550000  0.15290000  0.72870000  1
  C  C47  1  0.61550000  0.84710000  0.77130000  1
  C  C48  1  0.63680000  0.13520000  0.64570000  1
  C  C49  1  0.63680000  0.86480000  0.85430000  1
  C  C50  1  0.64450000  0.20110000  0.03240000  1
  C  C51  1  0.64450000  0.79890000  0.46760000  1
  C  C52  1  0.66780000  0.23420000  0.76280000  1
  C  C53  1  0.66780000  0.76580000  0.73720000  1
  C  C54  1  0.72700000  0.26910000  0.04490000  1
  C  C55  1  0.72700000  0.73090000  0.45510000  1
  C  C56  1  0.73090000  0.27300000  0.70510000  1
  C  C57  1  0.73090000  0.72700000  0.79490000  1
  C  C58  1  0.76580000  0.33220000  0.98720000  1
  C  C59  1  0.76580000  0.66780000  0.51280000  1
  C  C60  1  0.79890000  0.35550000  0.71760000  1
  C  C61  1  0.79890000  0.64450000  0.78240000  1
  C  C62  1  0.84710000  0.38450000  0.02130000  1
  C  C63  1  0.84710000  0.61550000  0.47870000  1
  C  C64  1  0.86480000  0.36320000  0.10430000  1
  C  C65  1  0.86480000  0.63680000  0.39570000  1
  C  C66  1  0.94210000  0.40620000  0.16000000  1
  C  C67  1  0.94210000  0.59380000  0.34000000  1
  S  S68  1  0.21530000  0.27640000  0.85790000  1
  S  S69  1  0.21530000  0.72360000  0.64210000  1
  S  S70  1  0.27640000  0.21530000  0.39210000  1
  S  S71  1  0.27640000  0.78470000  0.10790000  1
  S  S72  1  0.72360000  0.21530000  0.60790000  1
  S  S73  1  0.72360000  0.78470000  0.89210000  1
  S  S74  1  0.78470000  0.27640000  0.14210000  1
  S  S75  1  0.78470000  0.72360000  0.35790000  1
  O  O76  1  0.00300000  0.47280000  0.87140000  1
  O  O77  1  0.00300000  0.52720000  0.62860000  1
  O  O78  1  0.04870000  0.37900000  0.76450000  1
  O  O79  1  0.04870000  0.62100000  0.73550000  1
  O  O80  1  0.14770000  0.38570000  0.34220000  1
  O  O81  1  0.14770000  0.61430000  0.15780000  1
  O  O82  1  0.19260000  0.39340000  0.20850000  1
  O  O83  1  0.19260000  0.60660000  0.29150000  1
  O  O84  1  0.37900000  0.04870000  0.48550000  1
  O  O85  1  0.37900000  0.95130000  0.01450000  1
  O  O86  1  0.38570000  0.14770000  0.90780000  1
  O  O87  1  0.38570000  0.85230000  0.59220000  1
  O  O88  1  0.39340000  0.19260000  0.04150000  1
  O  O89  1  0.39340000  0.80740000  0.45850000  1
  O  O90  1  0.47280000  0.00300000  0.37860000  1
  O  O91  1  0.47280000  0.99700000  0.12140000  1
  O  O92  1  0.52720000  0.00300000  0.62140000  1
  O  O93  1  0.52720000  0.99700000  0.87860000  1
  O  O94  1  0.60660000  0.19260000  0.95850000  1
  O  O95  1  0.60660000  0.80740000  0.54150000  1
  O  O96  1  0.61430000  0.14770000  0.09220000  1
  O  O97  1  0.61430000  0.85230000  0.40780000  1
  O  O98  1  0.62100000  0.04870000  0.51450000  1
  O  O99  1  0.62100000  0.95130000  0.98550000  1
  O  O100  1  0.80740000  0.39340000  0.79150000  1
  O  O101  1  0.80740000  0.60660000  0.70850000  1
  O  O102  1  0.85230000  0.38570000  0.65780000  1
  O  O103  1  0.85230000  0.61430000  0.84220000  1
  O  O104  1  0.95130000  0.37900000  0.23550000  1
  O  O105  1  0.95130000  0.62100000  0.26450000  1
  O  O106  1  0.99700000  0.47280000  0.12860000  1
  O  O107  1  0.99700000  0.52720000  0.37140000  1
