# generated using pymatgen
data_CuH8C12(NO2)2
_symmetry_space_group_name_H-M   'P 1'
_cell_length_a   5.16460000
_cell_length_b   11.58500000
_cell_length_c   12.50258222
_cell_angle_alpha   87.62807301
_cell_angle_beta   78.08025788
_cell_angle_gamma   78.44100000
_symmetry_Int_Tables_number   1
_chemical_formula_structural   CuH8C12(NO2)2
_chemical_formula_sum   'Cu2 H16 C24 N4 O8'
_cell_volume   717.07929903
_cell_formula_units_Z   2
loop_
 _symmetry_equiv_pos_site_id
 _symmetry_equiv_pos_as_xyz
  1  'x, y, z'
loop_
 _atom_site_type_symbol
 _atom_site_label
 _atom_site_symmetry_multiplicity
 _atom_site_fract_x
 _atom_site_fract_y
 _atom_site_fract_z
 _atom_site_occupancy
  C  C0  1  0.75157000  0.56300000  0.50026000  1
  C  C1  1  0.25183000  0.06300000  0.49974000  1
  C  C2  1  0.01365000  0.35580000  0.02290000  1
  C  C3  1  0.03655000  0.85580000  0.97710000  1
  C  C4  1  0.56047000  0.98400000  0.94606000  1
  C  C5  1  0.50653000  0.48400000  0.05394000  1
  C  C6  1  0.60726000  0.59420000  0.87468000  1
  C  C7  1  0.48194000  0.09420000  0.12532000  1
  C  C8  1  0.91156000  0.01500000  0.37688000  1
  C  C9  1  0.28844000  0.51500000  0.62312000  1
  C  C10  1  0.71665000  0.90060000  0.87190000  1
  C  C11  1  0.58855000  0.40060000  0.12810000  1
  C  C12  1  0.68908000  0.50510000  0.95984000  1
  C  C13  1  0.64892000  0.00510000  0.04016000  1
  C  C14  1  0.95063000  0.94450000  0.46674000  1
  C  C15  1  0.41737000  0.44450000  0.53326000  1
  C  C16  1  0.12204000  0.96850000  0.52992000  1
  C  C17  1  0.65196000  0.46850000  0.47008000  1
  C  C18  1  0.20425000  0.12950000  0.40890000  1
  C  C19  1  0.61315000  0.62950000  0.59110000  1
  C  C20  1  0.94585000  0.44000000  0.94590000  1
  C  C21  1  0.89175000  0.94000000  0.05410000  1
  C  C22  1  0.17480000  0.89390000  0.62920000  1
  C  C23  1  0.80400000  0.39390000  0.37080000  1
  Cu  Cu24  1  0.94456000  0.21674000  0.22686000  1
  Cu  Cu25  1  0.17142000  0.71674000  0.77314000  1
  H  H26  1  0.96040000  0.95240000  0.11580000  1
  H  H27  1  0.07620000  0.45240000  0.88420000  1
  H  H28  1  0.65580000  0.88910000  0.80800000  1
  H  H29  1  0.46380000  0.38910000  0.19200000  1
  H  H30  1  0.86110000  0.88110000  0.48420000  1
  H  H31  1  0.34530000  0.38110000  0.51580000  1
  H  H32  1  0.91210000  0.58140000  0.45900000  1
  H  H33  1  0.37110000  0.08140000  0.54100000  1
  H  H34  1  0.19030000  0.31120000  0.01140000  1
  H  H35  1  0.20170000  0.81120000  0.98860000  1
  H  H36  1  0.32790000  0.52670000  0.06680000  1
  H  H37  1  0.39470000  0.02670000  0.93320000  1
  H  H38  1  0.12660000  0.49860000  0.66500000  1
  H  H39  1  0.79160000  0.99860000  0.33500000  1
  H  H40  1  0.29100000  0.19360000  0.38960000  1
  H  H41  1  0.68060000  0.69360000  0.61040000  1
  N  N42  1  0.03562000  0.10470000  0.34716000  1
  N  N43  1  0.38278000  0.60470000  0.65284000  1
  N  N44  1  0.95009000  0.83540000  0.88682000  1
  N  N45  1  0.83691000  0.33540000  0.11318000  1
  O  O46  1  0.78600000  0.62610000  0.80460000  1
  O  O47  1  0.59060000  0.12610000  0.19540000  1
  O  O48  1  0.02734000  0.41290000  0.32372000  1
  O  O49  1  0.35106000  0.91290000  0.67628000  1
  O  O50  1  0.23555000  0.12850000  0.11710000  1
  O  O51  1  0.35265000  0.62850000  0.88290000  1
  O  O52  1  0.03954000  0.81390000  0.65392000  1
  O  O53  1  0.69346000  0.31390000  0.34608000  1
