# generated using pymatgen
data_EuH6C13BrO6
_symmetry_space_group_name_H-M   'P 1'
_cell_length_a   9.93250000
_cell_length_b   12.70890000
_cell_length_c   16.20270000
_cell_angle_alpha   90.00000000
_cell_angle_beta   96.23600000
_cell_angle_gamma   90.00000000
_symmetry_Int_Tables_number   1
_chemical_formula_structural   EuH6C13BrO6
_chemical_formula_sum   'Eu4 H24 C52 Br4 O24'
_cell_volume   2033.18330339
_cell_formula_units_Z   4
loop_
 _symmetry_equiv_pos_site_id
 _symmetry_equiv_pos_as_xyz
  1  'x, y, z'
loop_
 _atom_site_type_symbol
 _atom_site_label
 _atom_site_symmetry_multiplicity
 _atom_site_fract_x
 _atom_site_fract_y
 _atom_site_fract_z
 _atom_site_occupancy
  Eu  Eu0  1  0.30590000  0.04326000  0.99499000  1
  Eu  Eu1  1  0.30590000  0.45674000  0.49499000  1
  Eu  Eu2  1  0.69410000  0.54326000  0.50501000  1
  Eu  Eu3  1  0.69410000  0.95674000  0.00501000  1
  H  H4  1  0.00940000  0.57540000  0.04680000  1
  H  H5  1  0.00940000  0.92460000  0.54680000  1
  H  H6  1  0.05790000  0.05040000  0.65110000  1
  H  H7  1  0.05790000  0.44960000  0.15110000  1
  H  H8  1  0.16600000  0.70150000  0.02660000  1
  H  H9  1  0.16600000  0.79850000  0.52660000  1
  H  H10  1  0.24460000  0.03560000  0.74370000  1
  H  H11  1  0.24460000  0.46440000  0.24370000  1
  H  H12  1  0.37720000  0.17990000  0.22990000  1
  H  H13  1  0.37720000  0.32010000  0.72990000  1
  H  H14  1  0.40920000  0.20700000  0.84480000  1
  H  H15  1  0.40920000  0.29300000  0.34480000  1
  H  H16  1  0.59080000  0.70700000  0.65520000  1
  H  H17  1  0.59080000  0.79300000  0.15520000  1
  H  H18  1  0.62280000  0.67990000  0.27010000  1
  H  H19  1  0.62280000  0.82010000  0.77010000  1
  H  H20  1  0.75540000  0.53560000  0.75630000  1
  H  H21  1  0.75540000  0.96440000  0.25630000  1
  H  H22  1  0.83400000  0.20150000  0.47340000  1
  H  H23  1  0.83400000  0.29850000  0.97340000  1
  H  H24  1  0.94210000  0.55040000  0.84890000  1
  H  H25  1  0.94210000  0.94960000  0.34890000  1
  H  H26  1  0.99060000  0.07540000  0.45320000  1
  H  H27  1  0.99060000  0.42460000  0.95320000  1
  C  C28  1  0.00740000  0.01150000  0.04710000  1
  C  C29  1  0.00740000  0.48850000  0.54710000  1
  C  C30  1  0.09010000  0.57880000  0.08160000  1
  C  C31  1  0.09010000  0.92120000  0.58160000  1
  C  C32  1  0.11790000  0.50480000  0.14610000  1
  C  C33  1  0.11790000  0.99520000  0.64610000  1
  C  C34  1  0.18270000  0.65520000  0.07090000  1
  C  C35  1  0.18270000  0.84480000  0.57090000  1
  C  C36  1  0.22990000  0.51280000  0.20070000  1
  C  C37  1  0.22990000  0.98720000  0.70070000  1
  C  C38  1  0.30390000  0.66630000  0.12540000  1
  C  C39  1  0.30390000  0.83370000  0.62540000  1
  C  C40  1  0.32570000  0.59430000  0.19320000  1
  C  C41  1  0.32570000  0.90570000  0.69320000  1
  C  C42  1  0.38510000  0.67090000  0.54950000  1
  C  C43  1  0.38510000  0.82910000  0.04950000  1
  C  C44  1  0.40530000  0.74400000  0.11370000  1
  C  C45  1  0.40530000  0.75600000  0.61370000  1
  C  C46  1  0.44560000  0.60700000  0.25080000  1
  C  C47  1  0.44560000  0.89300000  0.75080000  1
  C  C48  1  0.45770000  0.17690000  0.26500000  1
  C  C49  1  0.45770000  0.32310000  0.76500000  1
  C  C50  1  0.46650000  0.55160000  0.33390000  1
  C  C51  1  0.46650000  0.94840000  0.83390000  1
  C  C52  1  0.47730000  0.24610000  0.33460000  1
  C  C53  1  0.47730000  0.25390000  0.83460000  1
  C  C54  1  0.52270000  0.74610000  0.16540000  1
  C  C55  1  0.52270000  0.75390000  0.66540000  1
  C  C56  1  0.53350000  0.05160000  0.16610000  1
  C  C57  1  0.53350000  0.44840000  0.66610000  1
  C  C58  1  0.54230000  0.67690000  0.23500000  1
  C  C59  1  0.54230000  0.82310000  0.73500000  1
  C  C60  1  0.55440000  0.10700000  0.24920000  1
  C  C61  1  0.55440000  0.39300000  0.74920000  1
  C  C62  1  0.59470000  0.24400000  0.38630000  1
  C  C63  1  0.59470000  0.25600000  0.88630000  1
  C  C64  1  0.61490000  0.17090000  0.95050000  1
  C  C65  1  0.61490000  0.32910000  0.45050000  1
  C  C66  1  0.67430000  0.09430000  0.30680000  1
  C  C67  1  0.67430000  0.40570000  0.80680000  1
  C  C68  1  0.69610000  0.16630000  0.37460000  1
  C  C69  1  0.69610000  0.33370000  0.87460000  1
  C  C70  1  0.77010000  0.01280000  0.29930000  1
  C  C71  1  0.77010000  0.48720000  0.79930000  1
  C  C72  1  0.81730000  0.15520000  0.42910000  1
  C  C73  1  0.81730000  0.34480000  0.92910000  1
  C  C74  1  0.88210000  0.00480000  0.35390000  1
  C  C75  1  0.88210000  0.49520000  0.85390000  1
  C  C76  1  0.90990000  0.07880000  0.41840000  1
  C  C77  1  0.90990000  0.42120000  0.91840000  1
  C  C78  1  0.99260000  0.51150000  0.45290000  1
  C  C79  1  0.99260000  0.98850000  0.95290000  1
  Br  Br80  1  0.21940000  0.24502000  0.48350000  1
  Br  Br81  1  0.21940000  0.25498000  0.98350000  1
  Br  Br82  1  0.78060000  0.74502000  0.01650000  1
  Br  Br83  1  0.78060000  0.75498000  0.51650000  1
  O  O84  1  0.09560000  0.50090000  0.41590000  1
  O  O85  1  0.09560000  0.99910000  0.91590000  1
  O  O86  1  0.12280000  0.03810000  0.07940000  1
  O  O87  1  0.12280000  0.46190000  0.57940000  1
  O  O88  1  0.26670000  0.64190000  0.52300000  1
  O  O89  1  0.26670000  0.85810000  0.02300000  1
  O  O90  1  0.36280000  0.52280000  0.36630000  1
  O  O91  1  0.36280000  0.97720000  0.86630000  1
  O  O92  1  0.41360000  0.04410000  0.13260000  1
  O  O93  1  0.41360000  0.45590000  0.63260000  1
  O  O94  1  0.48640000  0.62360000  0.52690000  1
  O  O95  1  0.48640000  0.87640000  0.02690000  1
  O  O96  1  0.51360000  0.12360000  0.97310000  1
  O  O97  1  0.51360000  0.37640000  0.47310000  1
  O  O98  1  0.58640000  0.54410000  0.36740000  1
  O  O99  1  0.58640000  0.95590000  0.86740000  1
  O  O100  1  0.63720000  0.02280000  0.13370000  1
  O  O101  1  0.63720000  0.47720000  0.63370000  1
  O  O102  1  0.73330000  0.14190000  0.97700000  1
  O  O103  1  0.73330000  0.35810000  0.47700000  1
  O  O104  1  0.87720000  0.53810000  0.42060000  1
  O  O105  1  0.87720000  0.96190000  0.92060000  1
  O  O106  1  0.90440000  0.00090000  0.08410000  1
  O  O107  1  0.90440000  0.49910000  0.58410000  1
