# generated using pymatgen
data_K4U4C20I2N4O31
_symmetry_space_group_name_H-M   'P 1'
_cell_length_a   16.22110000
_cell_length_b   18.86903257
_cell_length_c   24.62854270
_cell_angle_alpha   79.90197221
_cell_angle_beta   70.77279233
_cell_angle_gamma   64.54298005
_symmetry_Int_Tables_number   1
_chemical_formula_structural   K4U4C20I2N4O31
_chemical_formula_sum   'K16 U16 C80 I8 N16 O124'
_cell_volume   6421.61345415
_cell_formula_units_Z   4
loop_
 _symmetry_equiv_pos_site_id
 _symmetry_equiv_pos_as_xyz
  1  'x, y, z'
loop_
 _atom_site_type_symbol
 _atom_site_label
 _atom_site_symmetry_multiplicity
 _atom_site_fract_x
 _atom_site_fract_y
 _atom_site_fract_z
 _atom_site_occupancy
  C  C0  1  0.90300000  0.94220000  0.05700000  1
  C  C1  1  0.09780000  0.44220000  0.55700000  1
  C  C2  1  0.74070000  0.40870000  0.58070000  1
  C  C3  1  0.26990000  0.90870000  0.08070000  1
  C  C4  1  0.91330000  0.98100000  0.99400000  1
  C  C5  1  0.11170000  0.48100000  0.49400000  1
  C  C6  1  0.83060000  0.04940000  0.92520000  1
  C  C7  1  0.19480000  0.54940000  0.42520000  1
  C  C8  1  0.84820000  0.91350000  0.95610000  1
  C  C9  1  0.28220000  0.41350000  0.45610000  1
  C  C10  1  0.76770000  0.91930000  0.93330000  1
  C  C11  1  0.37970000  0.41930000  0.43330000  1
  C  C12  1  0.69000000  0.80370000  0.00650000  1
  C  C13  1  0.49980000  0.30370000  0.50650000  1
  C  C14  1  0.06710000  0.72010000  0.03750000  1
  C  C15  1  0.17530000  0.22010000  0.53750000  1
  C  C16  1  0.97990000  0.70200000  0.04480000  1
  C  C17  1  0.27330000  0.20200000  0.54480000  1
  C  C18  1  0.78730000  0.78260000  0.96280000  1
  C  C19  1  0.46730000  0.28260000  0.46280000  1
  C  C20  1  0.12240000  0.02650000  0.70850000  1
  C  C21  1  0.14260000  0.52650000  0.20850000  1
  C  C22  1  0.86450000  0.81170000  0.86570000  1
  C  C23  1  0.45810000  0.31170000  0.36570000  1
  C  C24  1  0.83850000  0.86170000  0.81250000  1
  C  C25  1  0.48730000  0.36170000  0.31250000  1
  C  C26  1  0.10230000  0.18870000  0.48090000  1
  C  C27  1  0.22810000  0.68870000  0.98090000  1
  C  C28  1  0.14530000  0.06700000  0.58700000  1
  C  C29  1  0.20070000  0.56700000  0.08700000  1
  C  C30  1  0.11820000  0.98160000  0.66420000  1
  C  C31  1  0.23600000  0.48160000  0.16420000  1
  C  C32  1  0.18050000  0.57690000  0.02810000  1
  C  C33  1  0.21450000  0.07690000  0.52810000  1
  C  C34  1  0.12850000  0.14850000  0.42390000  1
  C  C35  1  0.29910000  0.64850000  0.92390000  1
  C  C36  1  0.73570000  0.59950000  0.97070000  1
  C  C37  1  0.69410000  0.09950000  0.47070000  1
  C  C38  1  0.79280000  0.07370000  0.43030000  1
  C  C39  1  0.70320000  0.57370000  0.93030000  1
  C  C40  1  0.20720000  0.92630000  0.56970000  1
  C  C41  1  0.29680000  0.42630000  0.06970000  1
  C  C42  1  0.26430000  0.40050000  0.02930000  1
  C  C43  1  0.30590000  0.90050000  0.52930000  1
  C  C44  1  0.87150000  0.85150000  0.57610000  1
  C  C45  1  0.70090000  0.35150000  0.07610000  1
  C  C46  1  0.81950000  0.42310000  0.97190000  1
  C  C47  1  0.78550000  0.92310000  0.47190000  1
  C  C48  1  0.88180000  0.01840000  0.33580000  1
  C  C49  1  0.76400000  0.51840000  0.83580000  1
  C  C50  1  0.85470000  0.93300000  0.41300000  1
  C  C51  1  0.79930000  0.43300000  0.91300000  1
  C  C52  1  0.89770000  0.81130000  0.51910000  1
  C  C53  1  0.77190000  0.31130000  0.01910000  1
  C  C54  1  0.16150000  0.13830000  0.18750000  1
  C  C55  1  0.51270000  0.63830000  0.68750000  1
  C  C56  1  0.13550000  0.18830000  0.13430000  1
  C  C57  1  0.54190000  0.68830000  0.63430000  1
  C  C58  1  0.87760000  0.97350000  0.29150000  1
  C  C59  1  0.85740000  0.47350000  0.79150000  1
  C  C60  1  0.21270000  0.21740000  0.03720000  1
  C  C61  1  0.53270000  0.71740000  0.53720000  1
  C  C62  1  0.02010000  0.29800000  0.95520000  1
  C  C63  1  0.72670000  0.79800000  0.45520000  1
  C  C64  1  0.93290000  0.27990000  0.96250000  1
  C  C65  1  0.82470000  0.77990000  0.46250000  1
  C  C66  1  0.31000000  0.19630000  0.99350000  1
  C  C67  1  0.50020000  0.69630000  0.49350000  1
  C  C68  1  0.23230000  0.08070000  0.06670000  1
  C  C69  1  0.62030000  0.58070000  0.56670000  1
  C  C70  1  0.15180000  0.08650000  0.04390000  1
  C  C71  1  0.71780000  0.58650000  0.54390000  1
  C  C72  1  0.16940000  0.95060000  0.07480000  1
  C  C73  1  0.80520000  0.45060000  0.57480000  1
  C  C74  1  0.08670000  0.01900000  0.00600000  1
  C  C75  1  0.88830000  0.51900000  0.50600000  1
  C  C76  1  0.25930000  0.59130000  0.41930000  1
  C  C77  1  0.73010000  0.09130000  0.91930000  1
  C  C78  1  0.09700000  0.05780000  0.94300000  1
  C  C79  1  0.90220000  0.55780000  0.44300000  1
  I  I80  1  0.92617000  0.51152000  0.29248000  1
  I  I81  1  0.26983000  0.01152000  0.79248000  1
  I  I82  1  0.69159000  0.90471000  0.72493000  1
  I  I83  1  0.67877000  0.40471000  0.22493000  1
  I  I84  1  0.30841000  0.09529000  0.27507000  1
  I  I85  1  0.32123000  0.59529000  0.77507000  1
  I  I86  1  0.07383000  0.48848000  0.70752000  1
  I  I87  1  0.73017000  0.98848000  0.20752000  1
  K  K88  1  0.72847000  0.83733000  0.13093000  1
  K  K89  1  0.30327000  0.33733000  0.63093000  1
  K  K90  1  0.55657000  0.36886000  0.59460000  1
  K  K91  1  0.47997000  0.86886000  0.09460000  1
  K  K92  1  0.83258000  0.62019000  0.06281000  1
  K  K93  1  0.48442000  0.12019000  0.56281000  1
  K  K94  1  0.90036000  0.33785000  0.26843000  1
  K  K95  1  0.49336000  0.83785000  0.76843000  1
  K  K96  1  0.09964000  0.66215000  0.73157000  1
  K  K97  1  0.50664000  0.16215000  0.23157000  1
  K  K98  1  0.16742000  0.37981000  0.93719000  1
  K  K99  1  0.51558000  0.87981000  0.43719000  1
  K  K100  1  0.44343000  0.63114000  0.40540000  1
  K  K101  1  0.52003000  0.13114000  0.90540000  1
  K  K102  1  0.27153000  0.16267000  0.86907000  1
  K  K103  1  0.69673000  0.66267000  0.36907000  1
  N  N104  1  0.83160000  0.99180000  0.97420000  1
  N  N105  1  0.20240000  0.49180000  0.47420000  1
  N  N106  1  0.78170000  0.84260000  0.91580000  1
  N  N107  1  0.45990000  0.34260000  0.41580000  1
  N  N108  1  0.15400000  0.66060000  0.00000000  1
  N  N109  1  0.18540000  0.16060000  0.50000000  1
  N  N110  1  0.19200000  0.98560000  0.60960000  1
  N  N111  1  0.21280000  0.48560000  0.10960000  1
  N  N112  1  0.80800000  0.01440000  0.39040000  1
  N  N113  1  0.78720000  0.51440000  0.89040000  1
  N  N114  1  0.84600000  0.33940000  0.00000000  1
  N  N115  1  0.81460000  0.83940000  0.50000000  1
  N  N116  1  0.21830000  0.15740000  0.08420000  1
  N  N117  1  0.54010000  0.65740000  0.58420000  1
  N  N118  1  0.16840000  0.00820000  0.02580000  1
  N  N119  1  0.79760000  0.50820000  0.52580000  1
  O  O120  1  0.71760000  0.12290000  0.87390000  1
  O  O121  1  0.28560000  0.62290000  0.37390000  1
  O  O122  1  0.97280000  0.90520000  0.07320000  1
  O  O123  1  0.04880000  0.40520000  0.57320000  1
  O  O124  1  0.67430000  0.52960000  0.44040000  1
  O  O125  1  0.35570000  0.02960000  0.94040000  1
  O  O126  1  0.85650000  0.54540000  0.41320000  1
  O  O127  1  0.18490000  0.04540000  0.91320000  1
  O  O128  1  0.71700000  0.40720000  0.53620000  1
  O  O129  1  0.33960000  0.90720000  0.03620000  1
  O  O130  1  0.62910000  0.58800000  0.31600000  1
  O  O131  1  0.46690000  0.08800000  0.81600000  1
  O  O132  1  0.85500000  0.61350000  0.28130000  1
  O  O133  1  0.25020000  0.11350000  0.78130000  1
  O  O134  1  0.57430000  0.97250000  0.90210000  1
  O  O135  1  0.55110000  0.47250000  0.40210000  1
  O  O136  1  0.68430000  0.77830000  0.05830000  1
  O  O137  1  0.47910000  0.27830000  0.55830000  1
  O  O138  1  0.61640000  0.84410000  0.98850000  1
  O  O139  1  0.55100000  0.34410000  0.48850000  1
  O  O140  1  0.90720000  0.72970000  0.08610000  1
  O  O141  1  0.83360000  0.47960000  0.33620000  1
  O  O142  1  0.35060000  0.97960000  0.83620000  1
  O  O143  1  0.27700000  0.22970000  0.58610000  1
  O  O144  1  0.04880000  0.04600000  0.75540000  1
  O  O145  1  0.14980000  0.54600000  0.25540000  1
  O  O146  1  0.71950000  0.35720000  0.44360000  1
  O  O147  1  0.47970000  0.85720000  0.94360000  1
  O  O148  1  0.76280000  0.37490000  0.38230000  1
  O  O149  1  0.48000000  0.87490000  0.88230000  1
  O  O150  1  0.06700000  0.53030000  0.20230000  1
  O  O151  1  0.20040000  0.03030000  0.70230000  1
  O  O152  1  0.64870000  0.00820000  0.71140000  1
  O  O153  1  0.63170000  0.50820000  0.21140000  1
  O  O154  1  0.75500000  0.89600000  0.81480000  1
  O  O155  1  0.53420000  0.39600000  0.31480000  1
  O  O156  1  0.93660000  0.47190000  0.22750000  1
  O  O157  1  0.36400000  0.97190000  0.72750000  1
  O  O158  1  0.70030000  0.40130000  0.29270000  1
  O  O159  1  0.60570000  0.90130000  0.79270000  1
  O  O160  1  0.98490000  0.66410000  0.00470000  1
  O  O161  1  0.34630000  0.16410000  0.50470000  1
  O  O162  1  0.67950000  0.62670000  0.01770000  1
  O  O163  1  0.67610000  0.12670000  0.51770000  1
  O  O164  1  0.99160000  0.53250000  0.10650000  1
  O  O165  1  0.36940000  0.03250000  0.60650000  1
  O  O166  1  0.91060000  0.86150000  0.76850000  1
  O  O167  1  0.45940000  0.36150000  0.26850000  1
  O  O168  1  0.80230000  0.38130000  0.18650000  1
  O  O169  1  0.62990000  0.88130000  0.68650000  1
  O  O170  1  0.05950000  0.14670000  0.41230000  1
  O  O171  1  0.38150000  0.64670000  0.91230000  1
  O  O172  1  0.82220000  0.59100000  0.95500000  1
  O  O173  1  0.63180000  0.09100000  0.45500000  1
  O  O174  1  0.96210000  0.63750000  0.90830000  1
  O  O175  1  0.49210000  0.13750000  0.40830000  1
  O  O176  1  0.85230000  0.46620000  0.07080000  1
  O  O177  1  0.61070000  0.96620000  0.57080000  1
  O  O178  1  0.97010000  0.37400000  0.15000000  1
  O  O179  1  0.50590000  0.87400000  0.65000000  1
  O  O180  1  0.21420000  0.11810000  0.39590000  1
  O  O181  1  0.27180000  0.61810000  0.89590000  1
  O  O182  1  0.78580000  0.88190000  0.60410000  1
  O  O183  1  0.72820000  0.38190000  0.10410000  1
  O  O184  1  0.02990000  0.62600000  0.85000000  1
  O  O185  1  0.49410000  0.12600000  0.35000000  1
  O  O186  1  0.14770000  0.53380000  0.92920000  1
  O  O187  1  0.38930000  0.03380000  0.42920000  1
  O  O188  1  0.03790000  0.36250000  0.09170000  1
  O  O189  1  0.50790000  0.86250000  0.59170000  1
  O  O190  1  0.17780000  0.40900000  0.04500000  1
  O  O191  1  0.36820000  0.90900000  0.54500000  1
  O  O192  1  0.94050000  0.85330000  0.58770000  1
  O  O193  1  0.61850000  0.35330000  0.08770000  1
  O  O194  1  0.19770000  0.61870000  0.81350000  1
  O  O195  1  0.37010000  0.11870000  0.31350000  1
  O  O196  1  0.08940000  0.13850000  0.23150000  1
  O  O197  1  0.54060000  0.63850000  0.73150000  1
  O  O198  1  0.00840000  0.46750000  0.89350000  1
  O  O199  1  0.63060000  0.96750000  0.39350000  1
  O  O200  1  0.32050000  0.37330000  0.98230000  1
  O  O201  1  0.32390000  0.87330000  0.48230000  1
  O  O202  1  0.01510000  0.33590000  0.99530000  1
  O  O203  1  0.65370000  0.83590000  0.49530000  1
  O  O204  1  0.29970000  0.59870000  0.70730000  1
  O  O205  1  0.39430000  0.09870000  0.20730000  1
  O  O206  1  0.06340000  0.52810000  0.77250000  1
  O  O207  1  0.63600000  0.02810000  0.27250000  1
  O  O208  1  0.24500000  0.10400000  0.18520000  1
  O  O209  1  0.46580000  0.60400000  0.68520000  1
  O  O210  1  0.35130000  0.99180000  0.28860000  1
  O  O211  1  0.36830000  0.49180000  0.78860000  1
  O  O212  1  0.93300000  0.46970000  0.79770000  1
  O  O213  1  0.79960000  0.96970000  0.29770000  1
  O  O214  1  0.23720000  0.62510000  0.61770000  1
  O  O215  1  0.52000000  0.12510000  0.11770000  1
  O  O216  1  0.28050000  0.64280000  0.55640000  1
  O  O217  1  0.52030000  0.14280000  0.05640000  1
  O  O218  1  0.95120000  0.95400000  0.24460000  1
  O  O219  1  0.85020000  0.45400000  0.74460000  1
  O  O220  1  0.16640000  0.52040000  0.66380000  1
  O  O221  1  0.09280000  0.27030000  0.91390000  1
  O  O222  1  0.72300000  0.77030000  0.41390000  1
  O  O223  1  0.64940000  0.02040000  0.16380000  1
  O  O224  1  0.38360000  0.15590000  0.01150000  1
  O  O225  1  0.44900000  0.65590000  0.51150000  1
  O  O226  1  0.31570000  0.22170000  0.94170000  1
  O  O227  1  0.52090000  0.72170000  0.44170000  1
  O  O228  1  0.42570000  0.02750000  0.09790000  1
  O  O229  1  0.44890000  0.52750000  0.59790000  1
  O  O230  1  0.14500000  0.38650000  0.71870000  1
  O  O231  1  0.74980000  0.88650000  0.21870000  1
  O  O232  1  0.37090000  0.41200000  0.68400000  1
  O  O233  1  0.53310000  0.91200000  0.18400000  1
  O  O234  1  0.28300000  0.59280000  0.46380000  1
  O  O235  1  0.66040000  0.09280000  0.96380000  1
  O  O236  1  0.14350000  0.45460000  0.58680000  1
  O  O237  1  0.81510000  0.95460000  0.08680000  1
  O  O238  1  0.32570000  0.47040000  0.55960000  1
  O  O239  1  0.64430000  0.97040000  0.05960000  1
  O  O240  1  0.02720000  0.09480000  0.92680000  1
  O  O241  1  0.95120000  0.59480000  0.42680000  1
  O  O242  1  0.28240000  0.87710000  0.12610000  1
  O  O243  1  0.71440000  0.37710000  0.62610000  1
  U  U244  1  0.78440000  0.44881000  0.43871000  1
  U  U245  1  0.32808000  0.94881000  0.93871000  1
  U  U246  1  0.62364000  0.87159000  0.88885000  1
  U  U247  1  0.61592000  0.37159000  0.38885000  1
  U  U248  1  0.06467000  0.44493000  0.13775000  1
  U  U249  1  0.35265000  0.94493000  0.63775000  1
  U  U250  1  0.10550000  0.63632000  0.91234000  1
  U  U251  1  0.34584000  0.13632000  0.41234000  1
  U  U252  1  0.89450000  0.36368000  0.08766000  1
  U  U253  1  0.65416000  0.86368000  0.58766000  1
  U  U254  1  0.93533000  0.55507000  0.86225000  1
  U  U255  1  0.64735000  0.05507000  0.36225000  1
  U  U256  1  0.37636000  0.12841000  0.11115000  1
  U  U257  1  0.38408000  0.62841000  0.61115000  1
  U  U258  1  0.21560000  0.55119000  0.56129000  1
  U  U259  1  0.67192000  0.05119000  0.06129000  1
