# generated using pymatgen
data_TbEu3H28(C5O2)12
_symmetry_space_group_name_H-M   'P 1'
_cell_length_a   13.00600000
_cell_length_b   13.82100000
_cell_length_c   27.97448007
_cell_angle_alpha   104.26958313
_cell_angle_beta   98.46047307
_cell_angle_gamma   94.38000000
_symmetry_Int_Tables_number   1
_chemical_formula_structural   TbEu3H28(C5O2)12
_chemical_formula_sum   'Tb2 Eu6 H56 C120 O48'
_cell_volume   4787.00433396
_cell_formula_units_Z   2
loop_
 _symmetry_equiv_pos_site_id
 _symmetry_equiv_pos_as_xyz
  1  'x, y, z'
loop_
 _atom_site_type_symbol
 _atom_site_label
 _atom_site_symmetry_multiplicity
 _atom_site_fract_x
 _atom_site_fract_y
 _atom_site_fract_z
 _atom_site_occupancy
  Tb  Tb0  1  0.11972000  0.57523000  0.55405000  1
  Tb  Tb1  1  0.96932000  0.93574000  0.06050000  1
  Eu  Eu2  1  0.03068000  0.06426000  0.93950000  1
  Eu  Eu3  1  0.47145000  0.04710000  0.58492000  1
  Eu  Eu4  1  0.48291000  0.39493000  0.91415000  1
  Eu  Eu5  1  0.51709000  0.60507000  0.08585000  1
  Eu  Eu6  1  0.52855000  0.95290000  0.41508000  1
  Eu  Eu7  1  0.88028000  0.42477000  0.44595000  1
  H  H8  1  0.00340000  0.82480000  0.67990000  1
  H  H9  1  0.02660000  0.39080000  0.65310000  1
  H  H10  1  0.03190000  0.84490000  0.27600000  1
  H  H11  1  0.03630000  0.68100000  0.72350000  1
  H  H12  1  0.05870000  0.89070000  0.76470000  1
  H  H13  1  0.06300000  0.71730000  0.81030000  1
  H  H14  1  0.07760000  0.44070000  0.74150000  1
  H  H15  1  0.08220000  0.27000000  0.39110000  1
  H  H16  1  0.09420000  0.14510000  0.78940000  1
  H  H17  1  0.13740000  0.81450000  0.88820000  1
  H  H18  1  0.18450000  0.79010000  0.30950000  1
  H  H19  1  0.19080000  0.96140000  0.22590000  1
  H  H20  1  0.20670000  0.43060000  0.80560000  1
  H  H21  1  0.24220000  0.12940000  0.15380000  1
  H  H22  1  0.24860000  0.02850000  0.31010000  1
  H  H23  1  0.24990000  0.70860000  0.43710000  1
  H  H24  1  0.25530000  0.74310000  0.01360000  1
  H  H25  1  0.26180000  0.29770000  0.05730000  1
  H  H26  1  0.27410000  0.05390000  0.38680000  1
  H  H27  1  0.27570000  0.26050000  0.51540000  1
  H  H28  1  0.32070000  0.59290000  0.88150000  1
  H  H29  1  0.32510000  0.60250000  0.72490000  1
  H  H30  1  0.34880000  0.63280000  0.81020000  1
  H  H31  1  0.37340000  0.07290000  0.20150000  1
  H  H32  1  0.43890000  0.36540000  0.27040000  1
  H  H33  1  0.44160000  0.03500000  0.27470000  1
  H  H34  1  0.45610000  0.37120000  0.18890000  1
  H  H35  1  0.49590000  0.67240000  0.65570000  1
  H  H36  1  0.50410000  0.32760000  0.34430000  1
  H  H37  1  0.54390000  0.62880000  0.81110000  1
  H  H38  1  0.55840000  0.96500000  0.72530000  1
  H  H39  1  0.56110000  0.63460000  0.72960000  1
  H  H40  1  0.62660000  0.92710000  0.79850000  1
  H  H41  1  0.65120000  0.36720000  0.18980000  1
  H  H42  1  0.67490000  0.39750000  0.27510000  1
  H  H43  1  0.67930000  0.40710000  0.11850000  1
  H  H44  1  0.72430000  0.73950000  0.48460000  1
  H  H45  1  0.72590000  0.94610000  0.61320000  1
  H  H46  1  0.73820000  0.70230000  0.94270000  1
  H  H47  1  0.74470000  0.25690000  0.98640000  1
  H  H48  1  0.75010000  0.29140000  0.56290000  1
  H  H49  1  0.75140000  0.97150000  0.68990000  1
  H  H50  1  0.75780000  0.87060000  0.84620000  1
  H  H51  1  0.79330000  0.56940000  0.19440000  1
  H  H52  1  0.80920000  0.03860000  0.77410000  1
  H  H53  1  0.81550000  0.20990000  0.69050000  1
  H  H54  1  0.86260000  0.18550000  0.11180000  1
  H  H55  1  0.90580000  0.85490000  0.21060000  1
  H  H56  1  0.91780000  0.73000000  0.60890000  1
  H  H57  1  0.92240000  0.55930000  0.25850000  1
  H  H58  1  0.93700000  0.28270000  0.18970000  1
  H  H59  1  0.94130000  0.10930000  0.23530000  1
  H  H60  1  0.96370000  0.31900000  0.27650000  1
  H  H61  1  0.96810000  0.15510000  0.72400000  1
  H  H62  1  0.97340000  0.60920000  0.34690000  1
  H  H63  1  0.99660000  0.17520000  0.32010000  1
  C  C64  1  0.00510000  0.09500000  0.25010000  1
  C  C65  1  0.01100000  0.29830000  0.72470000  1
  C  C66  1  0.01660000  0.21070000  0.74010000  1
  C  C67  1  0.02640000  0.99590000  0.16540000  1
  C  C68  1  0.03790000  0.13460000  0.30120000  1
  C  C69  1  0.03870000  0.64700000  0.35390000  1
  C  C70  1  0.06350000  0.03560000  0.22080000  1
  C  C71  1  0.06700000  0.69930000  0.32000000  1
  C  C72  1  0.07040000  0.59820000  0.43530000  1
  C  C73  1  0.08180000  0.38030000  0.75030000  1
  C  C74  1  0.09290000  0.20420000  0.77920000  1
  C  C75  1  0.10020000  0.67250000  0.74090000  1
  C  C76  1  0.10560000  0.65020000  0.39730000  1
  C  C77  1  0.11590000  0.69340000  0.79330000  1
  C  C78  1  0.12700000  0.86480000  0.98470000  1
  C  C79  1  0.13390000  0.11320000  0.32440000  1
  C  C80  1  0.13440000  0.24020000  0.40670000  1
  C  C81  1  0.14020000  0.37540000  0.48670000  1
  C  C82  1  0.15090000  0.13240000  0.06400000  1
  C  C83  1  0.15330000  0.00720000  0.24430000  1
  C  C84  1  0.15940000  0.37420000  0.78890000  1
  C  C85  1  0.16130000  0.62040000  0.65930000  1
  C  C86  1  0.16470000  0.75450000  0.33150000  1
  C  C87  1  0.16700000  0.28560000  0.80290000  1
  C  C88  1  0.17160000  0.15570000  0.37910000  1
  C  C89  1  0.17470000  0.28020000  0.45730000  1
  C  C90  1  0.17640000  0.77400000  0.90400000  1
  C  C91  1  0.17830000  0.63970000  0.71540000  1
  C  C92  1  0.18530000  0.78950000  0.95510000  1
  C  C93  1  0.18720000  0.04720000  0.29520000  1
  C  C94  1  0.20430000  0.70630000  0.40780000  1
  C  C95  1  0.20960000  0.67890000  0.82000000  1
  C  C96  1  0.22460000  0.69870000  0.87540000  1
  C  C97  1  0.23430000  0.75840000  0.37490000  1
  C  C98  1  0.23800000  0.20280000  0.10010000  1
  C  C99  1  0.24800000  0.11030000  0.40450000  1
  C  C100  1  0.24820000  0.73240000  0.97900000  1
  C  C101  1  0.24930000  0.23400000  0.48150000  1
  C  C102  1  0.25590000  0.27490000  0.84100000  1
  C  C103  1  0.27160000  0.62510000  0.74180000  1
  C  C104  1  0.27400000  0.18430000  0.14560000  1
  C  C105  1  0.28420000  0.14800000  0.45490000  1
  C  C106  1  0.28520000  0.28480000  0.08790000  1
  C  C107  1  0.28570000  0.64410000  0.79320000  1
  C  C108  1  0.28710000  0.64250000  0.89980000  1
  C  C109  1  0.30000000  0.66000000  0.95200000  1
  C  C110  1  0.33890000  0.81860000  0.38570000  1
  C  C111  1  0.35710000  0.24620000  0.17970000  1
  C  C112  1  0.35980000  0.09480000  0.48220000  1
  C  C113  1  0.36730000  0.34790000  0.12110000  1
  C  C114  1  0.36960000  0.60230000  0.97890000  1
  C  C115  1  0.39930000  0.22350000  0.22740000  1
  C  C116  1  0.40030000  0.12470000  0.22980000  1
  C  C117  1  0.40170000  0.32830000  0.16660000  1
  C  C118  1  0.41980000  0.43610000  0.10810000  1
  C  C119  1  0.43900000  0.29840000  0.27100000  1
  C  C120  1  0.44090000  0.10180000  0.27400000  1
  C  C121  1  0.47870000  0.27610000  0.31560000  1
  C  C122  1  0.48020000  0.17700000  0.31690000  1
  C  C123  1  0.48080000  0.85010000  0.63490000  1
  C  C124  1  0.51920000  0.14990000  0.36510000  1
  C  C125  1  0.51980000  0.82300000  0.68310000  1
  C  C126  1  0.52130000  0.72390000  0.68440000  1
  C  C127  1  0.55910000  0.89820000  0.72600000  1
  C  C128  1  0.56100000  0.70160000  0.72900000  1
  C  C129  1  0.58020000  0.56390000  0.89190000  1
  C  C130  1  0.59830000  0.67170000  0.83340000  1
  C  C131  1  0.59970000  0.87530000  0.77020000  1
  C  C132  1  0.60070000  0.77650000  0.77260000  1
  C  C133  1  0.63040000  0.39770000  0.02110000  1
  C  C134  1  0.63270000  0.65210000  0.87890000  1
  C  C135  1  0.64020000  0.90520000  0.51780000  1
  C  C136  1  0.64290000  0.75380000  0.82030000  1
  C  C137  1  0.66110000  0.18140000  0.61430000  1
  C  C138  1  0.70000000  0.34000000  0.04800000  1
  C  C139  1  0.71290000  0.35750000  0.10020000  1
  C  C140  1  0.71430000  0.35590000  0.20680000  1
  C  C141  1  0.71480000  0.71520000  0.91210000  1
  C  C142  1  0.71580000  0.85200000  0.54510000  1
  C  C143  1  0.72600000  0.81570000  0.85440000  1
  C  C144  1  0.72840000  0.37490000  0.25820000  1
  C  C145  1  0.74410000  0.72510000  0.15900000  1
  C  C146  1  0.75070000  0.76600000  0.51850000  1
  C  C147  1  0.75180000  0.26760000  0.02100000  1
  C  C148  1  0.75200000  0.88970000  0.59550000  1
  C  C149  1  0.76200000  0.79720000  0.89990000  1
  C  C150  1  0.76570000  0.24160000  0.62510000  1
  C  C151  1  0.77540000  0.30130000  0.12460000  1
  C  C152  1  0.79040000  0.32110000  0.18000000  1
  C  C153  1  0.79570000  0.29370000  0.59220000  1
  C  C154  1  0.81280000  0.95280000  0.70480000  1
  C  C155  1  0.81470000  0.21050000  0.04490000  1
  C  C156  1  0.82170000  0.36030000  0.28460000  1
  C  C157  1  0.82360000  0.22600000  0.09600000  1
  C  C158  1  0.82530000  0.71980000  0.54270000  1
  C  C159  1  0.82840000  0.84430000  0.62090000  1
  C  C160  1  0.83300000  0.71440000  0.19710000  1
  C  C161  1  0.83530000  0.24550000  0.66850000  1
  C  C162  1  0.83870000  0.37960000  0.34070000  1
  C  C163  1  0.84060000  0.62580000  0.21110000  1
  C  C164  1  0.84670000  0.99280000  0.75570000  1
  C  C165  1  0.84910000  0.86760000  0.93600000  1
  C  C166  1  0.85980000  0.62460000  0.51330000  1
  C  C167  1  0.86560000  0.75980000  0.59330000  1
  C  C168  1  0.86610000  0.88680000  0.67560000  1
  C  C169  1  0.87300000  0.13520000  0.01530000  1
  C  C170  1  0.88410000  0.30660000  0.20670000  1
  C  C171  1  0.89440000  0.34980000  0.60270000  1
  C  C172  1  0.89980000  0.32750000  0.25910000  1
  C  C173  1  0.90710000  0.79580000  0.22080000  1
  C  C174  1  0.91820000  0.61970000  0.24970000  1
  C  C175  1  0.92960000  0.40180000  0.56470000  1
  C  C176  1  0.93300000  0.30070000  0.68000000  1
  C  C177  1  0.93650000  0.96440000  0.77920000  1
  C  C178  1  0.96130000  0.35300000  0.64610000  1
  C  C179  1  0.96210000  0.86540000  0.69880000  1
  C  C180  1  0.97360000  0.00410000  0.83460000  1
  C  C181  1  0.98340000  0.78930000  0.25990000  1
  C  C182  1  0.98900000  0.70170000  0.27530000  1
  C  C183  1  0.99490000  0.90500000  0.74990000  1
  O  O184  1  0.01880000  0.45094000  0.57754000  1
  O  O185  1  0.04520000  0.96593000  0.85553000  1
  O  O186  1  0.05430000  0.40415000  0.47215000  1
  O  O187  1  0.06870000  0.92667000  0.14087000  1
  O  O188  1  0.08700000  0.65597000  0.63837000  1
  O  O189  1  0.09880000  0.93509000  0.96719000  1
  O  O190  1  0.10620000  0.85206000  0.02536000  1
  O  O191  1  0.11090000  0.06117000  0.07757000  1
  O  O192  1  0.12410000  0.14882000  0.02152000  1
  O  O193  1  0.13130000  0.61099000  0.47589000  1
  O  O194  1  0.20090000  0.42489000  0.52589000  1
  O  O195  1  0.22170000  0.57056000  0.63516000  1
  O  O196  1  0.25990000  0.19378000  0.85308000  1
  O  O197  1  0.32570000  0.35047000  0.85847000  1
  O  O198  1  0.36010000  0.87498000  0.35808000  1
  O  O199  1  0.37620000  0.11938000  0.52878000  1
  O  O200  1  0.38760000  0.45401000  0.06681000  1
  O  O201  1  0.38870000  0.63258000  0.02558000  1
  O  O202  1  0.40030000  0.02400000  0.45670000  1
  O  O203  1  0.40240000  0.52680000  0.95480000  1
  O  O204  1  0.40450000  0.81604000  0.42354000  1
  O  O205  1  0.44390000  0.78260000  0.59700000  1
  O  O206  1  0.49050000  0.94262000  0.63682000  1
  O  O207  1  0.49590000  0.48943000  0.13833000  1
  O  O208  1  0.50410000  0.51057000  0.86167000  1
  O  O209  1  0.50950000  0.05738000  0.36318000  1
  O  O210  1  0.55610000  0.21740000  0.40300000  1
  O  O211  1  0.59550000  0.18396000  0.57646000  1
  O  O212  1  0.59760000  0.47320000  0.04520000  1
  O  O213  1  0.59970000  0.97600000  0.54330000  1
  O  O214  1  0.61130000  0.36742000  0.97442000  1
  O  O215  1  0.61240000  0.54599000  0.93319000  1
  O  O216  1  0.62380000  0.88062000  0.47122000  1
  O  O217  1  0.63990000  0.12502000  0.64192000  1
  O  O218  1  0.67430000  0.64953000  0.14153000  1
  O  O219  1  0.74010000  0.80622000  0.14692000  1
  O  O220  1  0.77830000  0.42944000  0.36484000  1
  O  O221  1  0.79910000  0.57511000  0.47411000  1
  O  O222  1  0.86870000  0.38901000  0.52411000  1
  O  O223  1  0.87590000  0.85118000  0.97848000  1
  O  O224  1  0.88910000  0.93883000  0.92243000  1
  O  O225  1  0.89380000  0.14794000  0.97464000  1
  O  O226  1  0.90120000  0.06491000  0.03281000  1
  O  O227  1  0.91300000  0.34403000  0.36163000  1
  O  O228  1  0.93130000  0.07333000  0.85913000  1
  O  O229  1  0.94570000  0.59585000  0.52785000  1
  O  O230  1  0.95480000  0.03407000  0.14447000  1
  O  O231  1  0.98120000  0.54906000  0.42246000  1
