# generated using pymatgen
data_Cu2H14WC14(SN)4
_symmetry_space_group_name_H-M   'P 1'
_cell_length_a   11.03170000
_cell_length_b   13.89340000
_cell_length_c   18.29110000
_cell_angle_alpha   73.65880000
_cell_angle_beta   72.44870000
_cell_angle_gamma   66.60840000
_symmetry_Int_Tables_number   1
_chemical_formula_structural   Cu2H14WC14(SN)4
_chemical_formula_sum   'Cu8 H56 W4 C56 S16 N16'
_cell_volume   2411.03805019
_cell_formula_units_Z   4
loop_
 _symmetry_equiv_pos_site_id
 _symmetry_equiv_pos_as_xyz
  1  'x, y, z'
loop_
 _atom_site_type_symbol
 _atom_site_label
 _atom_site_symmetry_multiplicity
 _atom_site_fract_x
 _atom_site_fract_y
 _atom_site_fract_z
 _atom_site_occupancy
  Cu  Cu0  1  0.08111000  0.75908000  0.75314000  1
  Cu  Cu1  1  0.25035000  0.23701000  0.10499000  1
  Cu  Cu2  1  0.40667000  0.25908000  0.25314000  1
  Cu  Cu3  1  0.40765000  0.73701000  0.60499000  1
  Cu  Cu4  1  0.59235000  0.26299000  0.39501000  1
  Cu  Cu5  1  0.59333000  0.74092000  0.74686000  1
  Cu  Cu6  1  0.74965000  0.76299000  0.89501000  1
  Cu  Cu7  1  0.91889000  0.24092000  0.24686000  1
  H  H8  1  0.00250000  0.56500000  0.27020000  1
  H  H9  1  0.00970000  0.92160000  0.90060000  1
  H  H10  1  0.02430000  0.62540000  0.55040000  1
  H  H11  1  0.05230000  0.23420000  0.01240000  1
  H  H12  1  0.06740000  0.15160000  0.87540000  1
  H  H13  1  0.09440000  0.34840000  0.62460000  1
  H  H14  1  0.09900000  0.49340000  0.86440000  1
  H  H15  1  0.10620000  0.56790000  0.13550000  1
  H  H16  1  0.11100000  0.67830000  0.07930000  1
  H  H17  1  0.13140000  0.17830000  0.57930000  1
  H  H18  1  0.16230000  0.06500000  0.77020000  1
  H  H19  1  0.16810000  0.42160000  0.40060000  1
  H  H20  1  0.19040000  0.06790000  0.63550000  1
  H  H21  1  0.20010000  0.87460000  0.94960000  1
  H  H22  1  0.21480000  0.63240000  0.40300000  1
  H  H23  1  0.22370000  0.99030000  0.09490000  1
  H  H24  1  0.23340000  0.44540000  0.96220000  1
  H  H25  1  0.25020000  0.86760000  0.09700000  1
  H  H26  1  0.29100000  0.71980000  0.47240000  1
  H  H27  1  0.29890000  0.26580000  0.48760000  1
  H  H28  1  0.30890000  0.50970000  0.40510000  1
  H  H29  1  0.32240000  0.08450000  0.93230000  1
  H  H30  1  0.33920000  0.41550000  0.56770000  1
  H  H31  1  0.35900000  0.94540000  0.46220000  1
  H  H32  1  0.41950000  0.48960000  0.64420000  1
  H  H33  1  0.44670000  0.98960000  0.14420000  1
  H  H34  1  0.45680000  0.00660000  0.63560000  1
  H  H35  1  0.48320000  0.78020000  0.02760000  1
  H  H36  1  0.51680000  0.21980000  0.97240000  1
  H  H37  1  0.54320000  0.99340000  0.36440000  1
  H  H38  1  0.55330000  0.01040000  0.85580000  1
  H  H39  1  0.58050000  0.51040000  0.35580000  1
  H  H40  1  0.64100000  0.05460000  0.53780000  1
  H  H41  1  0.66080000  0.58450000  0.43230000  1
  H  H42  1  0.67760000  0.91550000  0.06770000  1
  H  H43  1  0.69110000  0.49030000  0.59490000  1
  H  H44  1  0.70110000  0.73420000  0.51240000  1
  H  H45  1  0.70900000  0.28020000  0.52760000  1
  H  H46  1  0.74980000  0.13240000  0.90300000  1
  H  H47  1  0.76660000  0.55460000  0.03780000  1
  H  H48  1  0.77630000  0.00970000  0.90510000  1
  H  H49  1  0.78520000  0.36760000  0.59700000  1
  H  H50  1  0.79990000  0.12540000  0.05040000  1
  H  H51  1  0.80960000  0.93210000  0.36450000  1
  H  H52  1  0.83190000  0.57840000  0.59940000  1
  H  H53  1  0.83770000  0.93500000  0.22980000  1
  H  H54  1  0.86860000  0.82170000  0.42070000  1
  H  H55  1  0.88900000  0.32170000  0.92070000  1
  H  H56  1  0.89380000  0.43210000  0.86450000  1
  H  H57  1  0.90100000  0.50660000  0.13560000  1
  H  H58  1  0.90560000  0.65160000  0.37540000  1
  H  H59  1  0.93260000  0.84840000  0.12460000  1
  H  H60  1  0.94770000  0.76580000  0.98760000  1
  H  H61  1  0.97570000  0.37460000  0.44960000  1
  H  H62  1  0.99030000  0.07840000  0.09940000  1
  H  H63  1  0.99750000  0.43500000  0.72980000  1
  W  W64  1  0.15562000  0.25802000  0.25526000  1
  W  W65  1  0.33110000  0.75802000  0.75526000  1
  W  W66  1  0.66890000  0.24198000  0.24474000  1
  W  W67  1  0.84438000  0.74198000  0.74474000  1
  C  C68  1  0.00540000  0.95380000  0.94120000  1
  C  C69  1  0.01470000  0.57390000  0.52970000  1
  C  C70  1  0.02100000  0.30100000  0.81420000  1
  C  C71  1  0.03070000  0.35920000  0.73840000  1
  C  C72  1  0.04980000  0.64190000  0.11670000  1
  C  C73  1  0.07150000  0.19260000  0.82400000  1
  C  C74  1  0.08230000  0.29320000  0.98760000  1
  C  C75  1  0.08810000  0.30740000  0.67600000  1
  C  C76  1  0.09960000  0.45380000  0.44120000  1
  C  C77  1  0.10590000  0.43450000  0.90670000  1
  C  C78  1  0.11480000  0.97150000  0.02910000  1
  C  C79  1  0.11540000  0.52850000  0.47090000  1
  C  C80  1  0.11830000  0.92610000  0.97030000  1
  C  C81  1  0.12830000  0.14080000  0.76160000  1
  C  C82  1  0.13620000  0.19900000  0.68580000  1
  C  C83  1  0.17980000  0.40750000  0.96010000  1
  C  C84  1  0.19160000  0.14190000  0.61670000  1
  C  C85  1  0.23800000  0.93850000  0.06270000  1
  C  C86  1  0.23920000  0.56150000  0.43730000  1
  C  C87  1  0.31340000  0.65260000  0.50620000  1
  C  C88  1  0.33910000  0.48650000  0.55770000  1
  C  C89  1  0.36310000  0.20680000  0.51240000  1
  C  C90  1  0.38300000  0.52750000  0.59930000  1
  C  C91  1  0.38330000  0.01350000  0.94230000  1
  C  C92  1  0.44710000  0.06550000  0.59330000  1
  C  C93  1  0.45260000  0.90750000  0.46010000  1
  C  C94  1  0.47220000  0.84740000  0.99380000  1
  C  C95  1  0.49020000  0.02750000  0.09930000  1
  C  C96  1  0.50980000  0.97250000  0.90070000  1
  C  C97  1  0.52780000  0.15260000  0.00620000  1
  C  C98  1  0.54740000  0.09250000  0.53990000  1
  C  C99  1  0.55290000  0.93450000  0.40670000  1
  C  C100  1  0.61670000  0.98650000  0.05770000  1
  C  C101  1  0.61700000  0.47250000  0.40070000  1
  C  C102  1  0.63690000  0.79320000  0.48760000  1
  C  C103  1  0.66090000  0.51350000  0.44230000  1
  C  C104  1  0.68660000  0.34740000  0.49380000  1
  C  C105  1  0.76080000  0.43850000  0.56270000  1
  C  C106  1  0.76200000  0.06150000  0.93730000  1
  C  C107  1  0.80840000  0.85810000  0.38330000  1
  C  C108  1  0.82020000  0.59250000  0.03990000  1
  C  C109  1  0.86380000  0.80100000  0.31420000  1
  C  C110  1  0.87170000  0.85920000  0.23840000  1
  C  C111  1  0.88170000  0.07390000  0.02970000  1
  C  C112  1  0.88460000  0.47150000  0.52910000  1
  C  C113  1  0.88520000  0.02850000  0.97090000  1
  C  C114  1  0.89410000  0.56550000  0.09330000  1
  C  C115  1  0.90040000  0.54620000  0.55880000  1
  C  C116  1  0.91190000  0.69260000  0.32400000  1
  C  C117  1  0.91770000  0.70680000  0.01240000  1
  C  C118  1  0.92850000  0.80740000  0.17600000  1
  C  C119  1  0.95020000  0.35810000  0.88330000  1
  C  C120  1  0.96930000  0.64080000  0.26160000  1
  C  C121  1  0.97900000  0.69900000  0.18580000  1
  C  C122  1  0.98530000  0.42610000  0.47030000  1
  C  C123  1  0.99460000  0.04620000  0.05880000  1
  S  S124  1  0.04868000  0.63837000  0.70079000  1
  S  S125  1  0.13913000  0.13670000  0.20284000  1
  S  S126  1  0.20534000  0.67824000  0.84922000  1
  S  S127  1  0.21281000  0.85559000  0.66321000  1
  S  S128  1  0.26720000  0.17824000  0.34922000  1
  S  S129  1  0.26839000  0.35559000  0.16321000  1
  S  S130  1  0.38784000  0.86163000  0.79921000  1
  S  S131  1  0.47867000  0.36330000  0.29716000  1
  S  S132  1  0.52133000  0.63670000  0.70284000  1
  S  S133  1  0.61216000  0.13837000  0.20079000  1
  S  S134  1  0.73161000  0.64441000  0.83679000  1
  S  S135  1  0.73280000  0.82176000  0.65078000  1
  S  S136  1  0.78719000  0.14441000  0.33679000  1
  S  S137  1  0.79466000  0.32176000  0.15078000  1
  S  S138  1  0.86087000  0.86330000  0.79716000  1
  S  S139  1  0.95132000  0.36163000  0.29921000  1
  N  N140  1  0.04310000  0.36220000  0.92400000  1
  N  N141  1  0.16680000  0.31630000  0.01170000  1
  N  N142  1  0.29510000  0.56620000  0.49880000  1
  N  N143  1  0.32930000  0.13780000  0.57600000  1
  N  N144  1  0.36010000  0.93380000  0.00120000  1
  N  N145  1  0.36680000  0.63140000  0.56680000  1
  N  N146  1  0.43500000  0.13140000  0.06680000  1
  N  N147  1  0.49480000  0.18370000  0.48830000  1
  N  N148  1  0.50520000  0.81630000  0.51170000  1
  N  N149  1  0.56500000  0.86860000  0.93320000  1
  N  N150  1  0.63320000  0.36860000  0.43320000  1
  N  N151  1  0.63990000  0.06620000  0.99880000  1
  N  N152  1  0.67070000  0.86220000  0.42400000  1
  N  N153  1  0.70490000  0.43380000  0.50120000  1
  N  N154  1  0.83320000  0.68370000  0.98830000  1
  N  N155  1  0.95690000  0.63780000  0.07600000  1
