# generated using pymatgen
data_Be2P3(HO3)4
_symmetry_space_group_name_H-M   'P 1'
_cell_length_a   9.31280000
_cell_length_b   9.35910000
_cell_length_c   15.16550000
_cell_angle_alpha   92.50500000
_cell_angle_beta   90.00000000
_cell_angle_gamma   90.00000000
_symmetry_Int_Tables_number   1
_chemical_formula_structural   Be2P3(HO3)4
_chemical_formula_sum   'Be8 P12 H16 O48'
_cell_volume   1320.55316954
_cell_formula_units_Z   4
loop_
 _symmetry_equiv_pos_site_id
 _symmetry_equiv_pos_as_xyz
  1  'x, y, z'
loop_
 _atom_site_type_symbol
 _atom_site_label
 _atom_site_symmetry_multiplicity
 _atom_site_fract_x
 _atom_site_fract_y
 _atom_site_fract_z
 _atom_site_occupancy
  Be  Be0  1  0.90560000  0.91640000  0.61700000  1
  Be  Be1  1  0.50270000  0.83280000  0.17940000  1
  Be  Be2  1  0.00270000  0.66720000  0.32060000  1
  Be  Be3  1  0.40560000  0.58360000  0.88300000  1
  Be  Be4  1  0.59440000  0.41640000  0.11700000  1
  Be  Be5  1  0.99730000  0.33280000  0.67940000  1
  Be  Be6  1  0.49730000  0.16720000  0.82060000  1
  Be  Be7  1  0.09440000  0.08360000  0.38300000  1
  P  P8  1  0.86096000  0.89111000  0.42394000  1
  P  P9  1  0.52548000  0.86303000  0.86166000  1
  P  P10  1  0.26074000  0.84847000  0.31425000  1
  P  P11  1  0.76074000  0.65153000  0.18575000  1
  P  P12  1  0.02548000  0.63697000  0.63834000  1
  P  P13  1  0.36096000  0.60889000  0.07606000  1
  P  P14  1  0.63904000  0.39111000  0.92394000  1
  P  P15  1  0.97452000  0.36303000  0.36166000  1
  P  P16  1  0.23926000  0.34847000  0.81425000  1
  P  P17  1  0.73926000  0.15153000  0.68575000  1
  P  P18  1  0.47452000  0.13697000  0.13834000  1
  P  P19  1  0.13904000  0.10889000  0.57606000  1
  H  H20  1  0.67640000  0.90140000  0.77310000  1
  H  H21  1  0.27200000  0.88670000  0.44520000  1
  H  H22  1  0.71240000  0.83910000  0.33300000  1
  H  H23  1  0.53890000  0.82710000  0.98980000  1
  H  H24  1  0.03890000  0.67290000  0.51020000  1
  H  H25  1  0.21240000  0.66090000  0.16700000  1
  H  H26  1  0.77200000  0.61330000  0.05480000  1
  H  H27  1  0.17640000  0.59860000  0.72690000  1
  H  H28  1  0.82360000  0.40140000  0.27310000  1
  H  H29  1  0.22800000  0.38670000  0.94520000  1
  H  H30  1  0.78760000  0.33910000  0.83300000  1
  H  H31  1  0.96110000  0.32710000  0.48980000  1
  H  H32  1  0.46110000  0.17290000  0.01020000  1
  H  H33  1  0.28760000  0.16090000  0.66700000  1
  H  H34  1  0.72800000  0.11330000  0.55480000  1
  H  H35  1  0.32360000  0.09860000  0.22690000  1
  O  O36  1  0.79450000  0.99840000  0.68806000  1
  O  O37  1  0.53890000  0.99500000  0.15536000  1
  O  O38  1  0.06110000  0.99000000  0.61964000  1
  O  O39  1  0.83020000  0.92450000  0.52106000  1
  O  O40  1  0.70660000  0.87550000  0.38301000  1
  O  O41  1  0.59510000  0.86240000  0.95525000  1
  O  O42  1  0.65710000  0.83040000  0.80069000  1
  O  O43  1  0.39210000  0.82750000  0.25895000  1
  O  O44  1  0.30240000  0.82100000  0.41281000  1
  O  O45  1  0.65000000  0.76190000  0.21453000  1
  O  O46  1  0.91630000  0.75420000  0.64881000  1
  O  O47  1  0.44080000  0.75170000  0.08865000  1
  O  O48  1  0.94080000  0.74830000  0.41135000  1
  O  O49  1  0.41630000  0.74580000  0.85119000  1
  O  O50  1  0.15000000  0.73810000  0.28547000  1
  O  O51  1  0.80240000  0.67900000  0.08719000  1
  O  O52  1  0.89210000  0.67250000  0.24105000  1
  O  O53  1  0.15710000  0.66960000  0.69931000  1
  O  O54  1  0.09510000  0.63760000  0.54475000  1
  O  O55  1  0.20660000  0.62450000  0.11699000  1
  O  O56  1  0.33020000  0.57550000  0.97894000  1
  O  O57  1  0.56110000  0.51000000  0.88036000  1
  O  O58  1  0.03890000  0.50500000  0.34464000  1
  O  O59  1  0.29450000  0.50160000  0.81194000  1
  O  O60  1  0.70550000  0.49840000  0.18806000  1
  O  O61  1  0.96110000  0.49500000  0.65536000  1
  O  O62  1  0.43890000  0.49000000  0.11964000  1
  O  O63  1  0.66980000  0.42450000  0.02106000  1
  O  O64  1  0.79340000  0.37550000  0.88301000  1
  O  O65  1  0.90490000  0.36240000  0.45525000  1
  O  O66  1  0.84290000  0.33040000  0.30069000  1
  O  O67  1  0.10790000  0.32750000  0.75895000  1
  O  O68  1  0.19760000  0.32100000  0.91281000  1
  O  O69  1  0.85000000  0.26190000  0.71453000  1
  O  O70  1  0.58370000  0.25420000  0.14881000  1
  O  O71  1  0.05920000  0.25170000  0.58865000  1
  O  O72  1  0.55920000  0.24830000  0.91135000  1
  O  O73  1  0.08370000  0.24580000  0.35119000  1
  O  O74  1  0.35000000  0.23810000  0.78547000  1
  O  O75  1  0.69760000  0.17900000  0.58719000  1
  O  O76  1  0.60790000  0.17250000  0.74105000  1
  O  O77  1  0.34290000  0.16960000  0.19931000  1
  O  O78  1  0.40490000  0.13760000  0.04475000  1
  O  O79  1  0.29340000  0.12450000  0.61699000  1
  O  O80  1  0.16980000  0.07550000  0.47894000  1
  O  O81  1  0.93890000  0.01000000  0.38036000  1
  O  O82  1  0.46110000  0.00500000  0.84464000  1
  O  O83  1  0.20550000  0.00160000  0.31194000  1
