# generated using pymatgen
data_CdH16C24(NO2)2
_symmetry_space_group_name_H-M   'P 1'
_cell_length_a   9.72700000
_cell_length_b   15.29590000
_cell_length_c   17.02040000
_cell_angle_alpha   90.00000000
_cell_angle_beta   90.00000000
_cell_angle_gamma   96.84770000
_symmetry_Int_Tables_number   1
_chemical_formula_structural   CdH16C24(NO2)2
_chemical_formula_sum   'Cd4 H64 C96 N8 O16'
_cell_volume   2514.28561587
_cell_formula_units_Z   4
loop_
 _symmetry_equiv_pos_site_id
 _symmetry_equiv_pos_as_xyz
  1  'x, y, z'
loop_
 _atom_site_type_symbol
 _atom_site_label
 _atom_site_symmetry_multiplicity
 _atom_site_fract_x
 _atom_site_fract_y
 _atom_site_fract_z
 _atom_site_occupancy
  Cd  Cd0  1  0.86686000  0.01932000  0.91974000  1
  Cd  Cd1  1  0.86686000  0.51932000  0.58026000  1
  Cd  Cd2  1  0.13314000  0.48068000  0.41974000  1
  Cd  Cd3  1  0.13314000  0.98068000  0.08026000  1
  H  H4  1  0.95640000  0.74280000  0.26900000  1
  H  H5  1  0.95640000  0.24280000  0.23100000  1
  H  H6  1  0.92070000  0.83080000  0.85790000  1
  H  H7  1  0.92070000  0.33080000  0.64210000  1
  H  H8  1  0.91780000  0.27150000  0.36930000  1
  H  H9  1  0.91780000  0.77150000  0.13070000  1
  H  H10  1  0.88790000  0.44000000  0.29170000  1
  H  H11  1  0.88790000  0.94000000  0.20830000  1
  H  H12  1  0.85940000  0.20690000  0.99410000  1
  H  H13  1  0.85940000  0.70690000  0.50590000  1
  H  H14  1  0.77360000  0.27630000  0.76420000  1
  H  H15  1  0.77360000  0.77630000  0.73580000  1
  H  H16  1  0.76040000  0.00670000  0.29900000  1
  H  H17  1  0.76040000  0.50670000  0.20100000  1
  H  H18  1  0.73790000  0.79040000  0.42520000  1
  H  H19  1  0.73790000  0.29040000  0.07480000  1
  H  H20  1  0.65730000  0.85120000  0.32430000  1
  H  H21  1  0.65730000  0.35120000  0.17570000  1
  H  H22  1  0.64390000  0.85590000  0.81690000  1
  H  H23  1  0.64390000  0.35590000  0.68310000  1
  H  H24  1  0.62730000  0.49000000  0.44420000  1
  H  H25  1  0.62730000  0.99000000  0.05580000  1
  H  H26  1  0.57850000  0.10030000  0.31620000  1
  H  H27  1  0.57850000  0.60030000  0.18380000  1
  H  H28  1  0.55390000  0.28830000  0.48190000  1
  H  H29  1  0.55390000  0.78830000  0.01810000  1
  H  H30  1  0.55150000  0.32880000  0.90620000  1
  H  H31  1  0.55150000  0.82880000  0.59380000  1
  H  H32  1  0.52480000  0.43100000  0.25570000  1
  H  H33  1  0.52480000  0.93100000  0.24430000  1
  H  H34  1  0.50230000  0.56620000  0.36000000  1
  H  H35  1  0.50230000  0.06620000  0.14000000  1
  H  H36  1  0.49770000  0.93380000  0.86000000  1
  H  H37  1  0.49770000  0.43380000  0.64000000  1
  H  H38  1  0.47520000  0.06900000  0.75570000  1
  H  H39  1  0.47520000  0.56900000  0.74430000  1
  H  H40  1  0.44850000  0.17120000  0.40620000  1
  H  H41  1  0.44850000  0.67120000  0.09380000  1
  H  H42  1  0.44610000  0.21170000  0.98190000  1
  H  H43  1  0.44610000  0.71170000  0.51810000  1
  H  H44  1  0.42150000  0.39970000  0.81620000  1
  H  H45  1  0.42150000  0.89970000  0.68380000  1
  H  H46  1  0.37270000  0.01000000  0.94420000  1
  H  H47  1  0.37270000  0.51000000  0.55580000  1
  H  H48  1  0.35610000  0.64410000  0.31690000  1
  H  H49  1  0.35610000  0.14410000  0.18310000  1
  H  H50  1  0.34270000  0.64880000  0.82430000  1
  H  H51  1  0.34270000  0.14880000  0.67570000  1
  H  H52  1  0.26210000  0.70960000  0.92520000  1
  H  H53  1  0.26210000  0.20960000  0.57480000  1
  H  H54  1  0.23960000  0.49330000  0.79900000  1
  H  H55  1  0.23960000  0.99330000  0.70100000  1
  H  H56  1  0.22640000  0.22370000  0.26420000  1
  H  H57  1  0.22640000  0.72370000  0.23580000  1
  H  H58  1  0.14060000  0.29310000  0.49410000  1
  H  H59  1  0.14060000  0.79310000  0.00590000  1
  H  H60  1  0.11210000  0.06000000  0.79170000  1
  H  H61  1  0.11210000  0.56000000  0.70830000  1
  H  H62  1  0.08220000  0.22850000  0.86930000  1
  H  H63  1  0.08220000  0.72850000  0.63070000  1
  H  H64  1  0.07930000  0.66920000  0.35790000  1
  H  H65  1  0.07930000  0.16920000  0.14210000  1
  H  H66  1  0.04360000  0.75720000  0.76900000  1
  H  H67  1  0.04360000  0.25720000  0.73100000  1
  C  C68  1  0.98670000  0.86430000  0.82541000  1
  C  C69  1  0.98670000  0.36430000  0.67459000  1
  C  C70  1  0.94050000  0.68040000  0.27233000  1
  C  C71  1  0.94050000  0.18040000  0.22767000  1
  C  C72  1  0.90200000  0.50230000  0.28690000  1
  C  C73  1  0.90200000  0.00230000  0.21310000  1
  C  C74  1  0.84350000  0.13300000  0.27636000  1
  C  C75  1  0.84350000  0.63300000  0.22364000  1
  C  C76  1  0.82580000  0.04170000  0.26730000  1
  C  C77  1  0.82580000  0.54170000  0.23270000  1
  C  C78  1  0.82320000  0.25005000  0.37753000  1
  C  C79  1  0.82320000  0.75005000  0.12247000  1
  C  C80  1  0.81380000  0.36599000  0.48267000  1
  C  C81  1  0.81380000  0.86599000  0.01733000  1
  C  C82  1  0.78460000  0.67800000  0.47630000  1
  C  C83  1  0.78460000  0.17800000  0.02370000  1
  C  C84  1  0.76250000  0.17810000  0.33374000  1
  C  C85  1  0.76250000  0.67810000  0.16626000  1
  C  C86  1  0.74690000  0.29057000  0.43295000  1
  C  C87  1  0.74690000  0.79057000  0.06705000  1
  C  C88  1  0.72910000  0.11153000  0.81540000  1
  C  C89  1  0.72910000  0.61153000  0.68460000  1
  C  C90  1  0.71310000  0.72850000  0.42782000  1
  C  C91  1  0.71310000  0.22850000  0.07218000  1
  C  C92  1  0.68670000  0.74970000  0.75480000  1
  C  C93  1  0.68670000  0.24970000  0.74520000  1
  C  C94  1  0.65020000  0.55199000  0.44010000  1
  C  C95  1  0.65020000  0.05199000  0.05990000  1
  C  C96  1  0.64080000  0.16350000  0.76620000  1
  C  C97  1  0.64080000  0.66350000  0.73380000  1
  C  C98  1  0.62150000  0.14890000  0.34550000  1
  C  C99  1  0.62150000  0.64890000  0.15450000  1
  C  C100  1  0.60900000  0.79740000  0.80260000  1
  C  C101  1  0.60900000  0.29740000  0.69740000  1
  C  C102  1  0.60640000  0.26080000  0.44410000  1
  C  C103  1  0.60640000  0.76080000  0.05590000  1
  C  C104  1  0.60340000  0.68815000  0.38240000  1
  C  C105  1  0.60340000  0.18815000  0.11760000  1
  C  C106  1  0.57480000  0.59714000  0.39000000  1
  C  C107  1  0.57480000  0.09714000  0.11000000  1
  C  C108  1  0.56880000  0.82510000  0.30720000  1
  C  C109  1  0.56880000  0.32510000  0.19280000  1
  C  C110  1  0.54420000  0.19070000  0.39960000  1
  C  C111  1  0.54420000  0.69070000  0.10040000  1
  C  C112  1  0.52070000  0.73929000  0.33037000  1
  C  C113  1  0.52070000  0.23929000  0.16963000  1
  C  C114  1  0.51020000  0.62720000  0.75960000  1
  C  C115  1  0.51020000  0.12720000  0.74040000  1
  C  C116  1  0.48980000  0.87280000  0.25960000  1
  C  C117  1  0.48980000  0.37280000  0.24040000  1
  C  C118  1  0.47930000  0.76071000  0.83037000  1
  C  C119  1  0.47930000  0.26071000  0.66963000  1
  C  C120  1  0.45580000  0.30930000  0.89960000  1
  C  C121  1  0.45580000  0.80930000  0.60040000  1
  C  C122  1  0.43120000  0.67490000  0.80720000  1
  C  C123  1  0.43120000  0.17490000  0.69280000  1
  C  C124  1  0.42520000  0.90286000  0.89000000  1
  C  C125  1  0.42520000  0.40286000  0.61000000  1
  C  C126  1  0.39660000  0.81185000  0.88240000  1
  C  C127  1  0.39660000  0.31185000  0.61760000  1
  C  C128  1  0.39360000  0.23920000  0.94410000  1
  C  C129  1  0.39360000  0.73920000  0.55590000  1
  C  C130  1  0.39100000  0.70260000  0.30260000  1
  C  C131  1  0.39100000  0.20260000  0.19740000  1
  C  C132  1  0.37850000  0.35110000  0.84550000  1
  C  C133  1  0.37850000  0.85110000  0.65450000  1
  C  C134  1  0.35920000  0.33650000  0.26620000  1
  C  C135  1  0.35920000  0.83650000  0.23380000  1
  C  C136  1  0.34980000  0.94801000  0.94010000  1
  C  C137  1  0.34980000  0.44801000  0.55990000  1
  C  C138  1  0.31330000  0.75030000  0.25480000  1
  C  C139  1  0.31330000  0.25030000  0.24520000  1
  C  C140  1  0.28690000  0.77150000  0.92782000  1
  C  C141  1  0.28690000  0.27150000  0.57218000  1
  C  C142  1  0.27090000  0.38847000  0.31540000  1
  C  C143  1  0.27090000  0.88847000  0.18460000  1
  C  C144  1  0.25310000  0.20943000  0.93295000  1
  C  C145  1  0.25310000  0.70943000  0.56705000  1
  C  C146  1  0.23750000  0.32190000  0.83374000  1
  C  C147  1  0.23750000  0.82190000  0.66626000  1
  C  C148  1  0.21540000  0.82200000  0.97630000  1
  C  C149  1  0.21540000  0.32200000  0.52370000  1
  C  C150  1  0.18620000  0.13401000  0.98267000  1
  C  C151  1  0.18620000  0.63401000  0.51733000  1
  C  C152  1  0.17680000  0.24995000  0.87753000  1
  C  C153  1  0.17680000  0.74995000  0.62247000  1
  C  C154  1  0.17420000  0.45830000  0.76730000  1
  C  C155  1  0.17420000  0.95830000  0.73270000  1
  C  C156  1  0.15650000  0.36700000  0.77636000  1
  C  C157  1  0.15650000  0.86700000  0.72364000  1
  C  C158  1  0.09800000  0.99770000  0.78690000  1
  C  C159  1  0.09800000  0.49770000  0.71310000  1
  C  C160  1  0.05950000  0.81960000  0.77233000  1
  C  C161  1  0.05950000  0.31960000  0.72767000  1
  C  C162  1  0.01330000  0.63570000  0.32541000  1
  C  C163  1  0.01330000  0.13570000  0.17459000  1
  N  N164  1  0.99660000  0.54835000  0.33394000  1
  N  N165  1  0.99660000  0.04835000  0.16606000  1
  N  N166  1  0.75550000  0.59074000  0.48427000  1
  N  N167  1  0.75550000  0.09074000  0.01573000  1
  N  N168  1  0.24450000  0.90926000  0.98427000  1
  N  N169  1  0.24450000  0.40926000  0.51573000  1
  N  N170  1  0.00340000  0.95165000  0.83394000  1
  N  N171  1  0.00340000  0.45165000  0.66606000  1
  O  O172  1  0.93130000  0.40116000  0.46602000  1
  O  O173  1  0.93130000  0.90116000  0.03398000  1
  O  O174  1  0.84550000  0.14735000  0.83848000  1
  O  O175  1  0.84550000  0.64735000  0.66152000  1
  O  O176  1  0.74460000  0.88993000  0.96110000  1
  O  O177  1  0.74460000  0.38993000  0.53890000  1
  O  O178  1  0.68380000  0.03282000  0.83224000  1
  O  O179  1  0.68380000  0.53282000  0.66776000  1
  O  O180  1  0.31620000  0.46718000  0.33224000  1
  O  O181  1  0.31620000  0.96718000  0.16776000  1
  O  O182  1  0.25540000  0.61007000  0.46110000  1
  O  O183  1  0.25540000  0.11007000  0.03890000  1
  O  O184  1  0.15450000  0.35265000  0.33848000  1
  O  O185  1  0.15450000  0.85265000  0.16152000  1
  O  O186  1  0.06870000  0.09884000  0.96602000  1
  O  O187  1  0.06870000  0.59884000  0.53398000  1
