# generated using pymatgen
data_ZnH16C18(NO)4
_symmetry_space_group_name_H-M   'P 1'
_cell_length_a   14.77400000
_cell_length_b   15.65300000
_cell_length_c   16.87100000
_cell_angle_alpha   90.00000000
_cell_angle_beta   90.00000000
_cell_angle_gamma   90.00000000
_symmetry_Int_Tables_number   1
_chemical_formula_structural   ZnH16C18(NO)4
_chemical_formula_sum   'Zn8 H128 C144 N32 O32'
_cell_volume   3901.54396656
_cell_formula_units_Z   8
loop_
 _symmetry_equiv_pos_site_id
 _symmetry_equiv_pos_as_xyz
  1  'x, y, z'
loop_
 _atom_site_type_symbol
 _atom_site_label
 _atom_site_symmetry_multiplicity
 _atom_site_fract_x
 _atom_site_fract_y
 _atom_site_fract_z
 _atom_site_occupancy
  Zn  Zn0  1  0.08806000  0.47161000  0.76249000  1
  Zn  Zn1  1  0.15374000  0.02468000  0.20973000  1
  Zn  Zn2  1  0.34626000  0.97532000  0.70973000  1
  Zn  Zn3  1  0.41194000  0.52839000  0.26249000  1
  Zn  Zn4  1  0.58806000  0.02839000  0.23751000  1
  Zn  Zn5  1  0.65374000  0.47532000  0.79027000  1
  Zn  Zn6  1  0.84626000  0.52468000  0.29027000  1
  Zn  Zn7  1  0.91194000  0.97161000  0.73751000  1
  H  H8  1  0.00290000  0.65140000  0.33510000  1
  H  H9  1  0.00890000  0.00380000  0.35140000  1
  H  H10  1  0.01120000  0.79550000  0.83670000  1
  H  H11  1  0.01590000  0.39020000  0.93110000  1
  H  H12  1  0.03250000  0.38080000  0.33240000  1
  H  H13  1  0.04050000  0.99460000  0.96900000  1
  H  H14  1  0.04310000  0.87510000  0.88510000  1
  H  H15  1  0.06100000  0.16200000  0.92780000  1
  H  H16  1  0.07210000  0.44320000  0.39640000  1
  H  H17  1  0.07310000  0.08990000  0.68740000  1
  H  H18  1  0.10060000  0.84870000  0.01720000  1
  H  H19  1  0.10240000  0.75030000  0.71570000  1
  H  H20  1  0.10310000  0.65760000  0.86150000  1
  H  H21  1  0.10370000  0.22870000  0.32870000  1
  H  H22  1  0.10740000  0.95460000  0.49320000  1
  H  H23  1  0.11980000  0.38120000  0.51680000  1
  H  H24  1  0.13260000  0.75330000  0.11880000  1
  H  H25  1  0.13640000  0.11190000  0.40820000  1
  H  H26  1  0.13770000  0.56200000  0.96420000  1
  H  H27  1  0.13940000  0.34240000  0.21030000  1
  H  H28  1  0.14270000  0.67540000  0.25950000  1
  H  H29  1  0.15660000  0.26700000  0.59670000  1
  H  H30  1  0.16010000  0.52830000  0.09300000  1
  H  H31  1  0.19630000  0.20950000  0.73380000  1
  H  H32  1  0.19950000  0.93930000  0.84200000  1
  H  H33  1  0.21040000  0.60100000  0.66490000  1
  H  H34  1  0.21630000  0.59760000  0.13850000  1
  H  H35  1  0.21700000  0.12490000  0.60640000  1
  H  H36  1  0.23250000  0.81400000  0.64530000  1
  H  H37  1  0.23270000  0.07140000  0.52920000  1
  H  H38  1  0.23620000  0.49870000  0.37350000  1
  H  H39  1  0.23660000  0.79170000  0.38500000  1
  H  H40  1  0.26340000  0.20830000  0.88500000  1
  H  H41  1  0.26380000  0.50130000  0.87350000  1
  H  H42  1  0.26730000  0.92860000  0.02920000  1
  H  H43  1  0.26750000  0.18600000  0.14530000  1
  H  H44  1  0.28300000  0.87510000  0.10640000  1
  H  H45  1  0.28370000  0.40240000  0.63850000  1
  H  H46  1  0.28960000  0.39900000  0.16490000  1
  H  H47  1  0.30050000  0.06070000  0.34200000  1
  H  H48  1  0.30370000  0.79050000  0.23380000  1
  H  H49  1  0.33990000  0.47170000  0.59300000  1
  H  H50  1  0.34340000  0.73300000  0.09670000  1
  H  H51  1  0.35730000  0.32460000  0.75950000  1
  H  H52  1  0.36060000  0.65760000  0.71030000  1
  H  H53  1  0.36230000  0.43800000  0.46420000  1
  H  H54  1  0.36360000  0.88810000  0.90820000  1
  H  H55  1  0.36740000  0.24670000  0.61880000  1
  H  H56  1  0.38020000  0.61880000  0.01680000  1
  H  H57  1  0.39260000  0.04540000  0.99320000  1
  H  H58  1  0.39630000  0.77130000  0.82870000  1
  H  H59  1  0.39690000  0.34240000  0.36150000  1
  H  H60  1  0.39760000  0.24970000  0.21570000  1
  H  H61  1  0.39940000  0.15130000  0.51720000  1
  H  H62  1  0.42690000  0.91010000  0.18740000  1
  H  H63  1  0.42790000  0.55680000  0.89640000  1
  H  H64  1  0.43900000  0.83800000  0.42780000  1
  H  H65  1  0.45690000  0.12490000  0.38510000  1
  H  H66  1  0.45950000  0.00540000  0.46900000  1
  H  H67  1  0.46750000  0.61920000  0.83240000  1
  H  H68  1  0.48410000  0.60980000  0.43110000  1
  H  H69  1  0.48880000  0.20450000  0.33670000  1
  H  H70  1  0.49110000  0.99620000  0.85140000  1
  H  H71  1  0.49710000  0.34860000  0.83510000  1
  H  H72  1  0.50290000  0.84860000  0.66490000  1
  H  H73  1  0.50890000  0.49620000  0.64860000  1
  H  H74  1  0.51120000  0.70450000  0.16330000  1
  H  H75  1  0.51590000  0.10980000  0.06890000  1
  H  H76  1  0.53250000  0.11920000  0.66760000  1
  H  H77  1  0.54050000  0.50540000  0.03100000  1
  H  H78  1  0.54310000  0.62490000  0.11490000  1
  H  H79  1  0.56100000  0.33800000  0.07220000  1
  H  H80  1  0.57210000  0.05680000  0.60360000  1
  H  H81  1  0.57310000  0.41010000  0.31260000  1
  H  H82  1  0.60060000  0.65130000  0.98280000  1
  H  H83  1  0.60240000  0.74970000  0.28430000  1
  H  H84  1  0.60310000  0.84240000  0.13850000  1
  H  H85  1  0.60370000  0.27130000  0.67130000  1
  H  H86  1  0.60740000  0.54540000  0.50680000  1
  H  H87  1  0.61980000  0.11880000  0.48320000  1
  H  H88  1  0.63260000  0.74670000  0.88120000  1
  H  H89  1  0.63640000  0.38810000  0.59180000  1
  H  H90  1  0.63770000  0.93800000  0.03580000  1
  H  H91  1  0.63940000  0.15760000  0.78970000  1
  H  H92  1  0.64270000  0.82460000  0.74050000  1
  H  H93  1  0.65660000  0.23300000  0.40330000  1
  H  H94  1  0.66010000  0.97170000  0.90700000  1
  H  H95  1  0.69630000  0.29050000  0.26620000  1
  H  H96  1  0.69950000  0.56070000  0.15800000  1
  H  H97  1  0.71040000  0.89900000  0.33510000  1
  H  H98  1  0.71630000  0.90240000  0.86150000  1
  H  H99  1  0.71700000  0.37510000  0.39360000  1
  H  H100  1  0.73250000  0.68600000  0.35470000  1
  H  H101  1  0.73270000  0.42860000  0.47080000  1
  H  H102  1  0.73620000  0.00130000  0.62650000  1
  H  H103  1  0.73660000  0.70830000  0.61500000  1
  H  H104  1  0.76340000  0.29170000  0.11500000  1
  H  H105  1  0.76380000  0.99870000  0.12650000  1
  H  H106  1  0.76730000  0.57140000  0.97080000  1
  H  H107  1  0.76750000  0.31400000  0.85470000  1
  H  H108  1  0.78300000  0.62490000  0.89360000  1
  H  H109  1  0.78370000  0.09760000  0.36150000  1
  H  H110  1  0.78960000  0.10100000  0.83510000  1
  H  H111  1  0.80050000  0.43930000  0.65800000  1
  H  H112  1  0.80370000  0.70950000  0.76620000  1
  H  H113  1  0.83990000  0.02830000  0.40700000  1
  H  H114  1  0.84340000  0.76700000  0.90330000  1
  H  H115  1  0.85730000  0.17540000  0.24050000  1
  H  H116  1  0.86060000  0.84240000  0.28970000  1
  H  H117  1  0.86230000  0.06200000  0.53580000  1
  H  H118  1  0.86360000  0.61190000  0.09180000  1
  H  H119  1  0.86740000  0.25330000  0.38120000  1
  H  H120  1  0.88020000  0.88120000  0.98320000  1
  H  H121  1  0.89260000  0.45460000  0.00680000  1
  H  H122  1  0.89630000  0.72870000  0.17130000  1
  H  H123  1  0.89690000  0.15760000  0.63850000  1
  H  H124  1  0.89760000  0.25030000  0.78430000  1
  H  H125  1  0.89940000  0.34870000  0.48280000  1
  H  H126  1  0.92690000  0.58990000  0.81260000  1
  H  H127  1  0.92790000  0.94320000  0.10360000  1
  H  H128  1  0.93900000  0.66200000  0.57220000  1
  H  H129  1  0.95690000  0.37510000  0.61490000  1
  H  H130  1  0.95950000  0.49460000  0.53100000  1
  H  H131  1  0.96750000  0.88080000  0.16760000  1
  H  H132  1  0.98410000  0.89020000  0.56890000  1
  H  H133  1  0.98880000  0.29550000  0.66330000  1
  H  H134  1  0.99110000  0.50380000  0.14860000  1
  H  H135  1  0.99710000  0.15140000  0.16490000  1
  C  C136  1  0.00460000  0.58000000  0.65290000  1
  C  C137  1  0.01170000  0.54340000  0.18550000  1
  C  C138  1  0.01700000  0.93840000  0.58320000  1
  C  C139  1  0.01860000  0.62470000  0.28780000  1
  C  C140  1  0.04310000  0.10550000  0.92120000  1
  C  C141  1  0.06020000  0.05040000  0.97660000  1
  C  C142  1  0.06310000  0.82140000  0.86240000  1
  C  C143  1  0.06580000  0.04840000  0.64850000  1
  C  C144  1  0.08510000  0.97400000  0.54150000  1
  C  C145  1  0.08590000  0.39400000  0.36360000  1
  C  C146  1  0.09360000  0.76280000  0.93000000  1
  C  C147  1  0.09580000  0.63840000  0.24650000  1
  C  C148  1  0.10580000  0.79080000  0.00600000  1
  C  C149  1  0.10760000  0.67720000  0.91340000  1
  C  C150  1  0.10830000  0.31900000  0.41590000  1
  C  C151  1  0.11000000  0.07030000  0.05280000  1
  C  C152  1  0.11420000  0.23640000  0.38260000  1
  C  C153  1  0.12430000  0.32720000  0.49420000  1
  C  C154  1  0.12600000  0.73330000  0.06720000  1
  C  C155  1  0.12870000  0.61960000  0.97510000  1
  C  C156  1  0.13570000  0.16650000  0.43000000  1
  C  C157  1  0.13580000  0.64970000  0.05180000  1
  C  C158  1  0.13820000  0.79550000  0.73290000  1
  C  C159  1  0.14730000  0.25870000  0.54280000  1
  C  C160  1  0.15620000  0.17770000  0.50970000  1
  C  C161  1  0.15730000  0.58490000  0.11630000  1
  C  C162  1  0.16240000  0.31660000  0.80130000  1
  C  C163  1  0.17690000  0.38000000  0.23750000  1
  C  C164  1  0.18770000  0.10310000  0.55910000  1
  C  C165  1  0.19250000  0.89970000  0.80140000  1
  C  C166  1  0.20000000  0.89450000  0.31140000  1
  C  C167  1  0.20550000  0.23240000  0.78400000  1
  C  C168  1  0.21010000  0.83190000  0.69410000  1
  C  C169  1  0.23160000  0.46680000  0.32720000  1
  C  C170  1  0.23950000  0.58790000  0.71230000  1
  C  C171  1  0.24450000  0.81220000  0.33370000  1
  C  C172  1  0.25550000  0.18780000  0.83370000  1
  C  C173  1  0.26050000  0.41210000  0.21230000  1
  C  C174  1  0.26840000  0.53320000  0.82720000  1
  C  C175  1  0.28990000  0.16810000  0.19410000  1
  C  C176  1  0.29450000  0.76760000  0.28400000  1
  C  C177  1  0.30000000  0.10550000  0.81140000  1
  C  C178  1  0.30750000  0.10030000  0.30140000  1
  C  C179  1  0.31230000  0.89690000  0.05910000  1
  C  C180  1  0.32310000  0.62000000  0.73750000  1
  C  C181  1  0.33760000  0.68340000  0.30130000  1
  C  C182  1  0.34270000  0.41510000  0.61630000  1
  C  C183  1  0.34380000  0.82230000  0.00970000  1
  C  C184  1  0.35270000  0.74130000  0.04280000  1
  C  C185  1  0.36180000  0.20450000  0.23290000  1
  C  C186  1  0.36420000  0.35030000  0.55180000  1
  C  C187  1  0.36430000  0.83350000  0.93000000  1
  C  C188  1  0.37130000  0.38040000  0.47510000  1
  C  C189  1  0.37400000  0.26670000  0.56720000  1
  C  C190  1  0.37570000  0.67280000  0.99420000  1
  C  C191  1  0.38580000  0.76360000  0.88260000  1
  C  C192  1  0.39000000  0.92970000  0.55280000  1
  C  C193  1  0.39170000  0.68100000  0.91590000  1
  C  C194  1  0.39240000  0.32280000  0.41340000  1
  C  C195  1  0.39420000  0.20920000  0.50600000  1
  C  C196  1  0.40420000  0.36160000  0.74650000  1
  C  C197  1  0.40640000  0.23720000  0.43000000  1
  C  C198  1  0.41410000  0.60600000  0.86360000  1
  C  C199  1  0.41490000  0.02600000  0.04150000  1
  C  C200  1  0.43420000  0.95160000  0.14850000  1
  C  C201  1  0.43690000  0.17860000  0.36240000  1
  C  C202  1  0.43980000  0.94960000  0.47660000  1
  C  C203  1  0.45690000  0.89450000  0.42120000  1
  C  C204  1  0.48140000  0.37530000  0.78780000  1
  C  C205  1  0.48300000  0.06160000  0.08320000  1
  C  C206  1  0.48830000  0.45660000  0.68550000  1
  C  C207  1  0.49540000  0.42000000  0.15290000  1
  C  C208  1  0.50460000  0.92000000  0.34710000  1
  C  C209  1  0.51170000  0.95660000  0.81450000  1
  C  C210  1  0.51700000  0.56160000  0.41680000  1
  C  C211  1  0.51860000  0.87530000  0.71220000  1
  C  C212  1  0.54310000  0.39450000  0.07880000  1
  C  C213  1  0.56020000  0.44960000  0.02340000  1
  C  C214  1  0.56310000  0.67860000  0.13760000  1
  C  C215  1  0.56580000  0.45160000  0.35150000  1
  C  C216  1  0.58510000  0.52600000  0.45850000  1
  C  C217  1  0.58590000  0.10600000  0.63640000  1
  C  C218  1  0.59360000  0.73720000  0.07000000  1
  C  C219  1  0.59580000  0.86160000  0.75350000  1
  C  C220  1  0.60580000  0.70920000  0.99400000  1
  C  C221  1  0.60760000  0.82280000  0.08660000  1
  C  C222  1  0.60830000  0.18100000  0.58410000  1
  C  C223  1  0.61000000  0.42970000  0.94720000  1
  C  C224  1  0.61420000  0.26360000  0.61740000  1
  C  C225  1  0.62430000  0.17280000  0.50580000  1
  C  C226  1  0.62600000  0.76670000  0.93280000  1
  C  C227  1  0.62870000  0.88040000  0.02490000  1
  C  C228  1  0.63570000  0.33350000  0.57000000  1
  C  C229  1  0.63580000  0.85030000  0.94820000  1
  C  C230  1  0.63820000  0.70450000  0.26710000  1
  C  C231  1  0.64730000  0.24130000  0.45720000  1
  C  C232  1  0.65620000  0.32230000  0.49030000  1
  C  C233  1  0.65730000  0.91510000  0.88370000  1
  C  C234  1  0.66240000  0.18340000  0.19870000  1
  C  C235  1  0.67690000  0.12000000  0.76250000  1
  C  C236  1  0.68770000  0.39690000  0.44090000  1
  C  C237  1  0.69250000  0.60030000  0.19860000  1
  C  C238  1  0.70000000  0.60550000  0.68860000  1
  C  C239  1  0.70550000  0.26760000  0.21600000  1
  C  C240  1  0.71010000  0.66810000  0.30590000  1
  C  C241  1  0.73160000  0.03320000  0.67280000  1
  C  C242  1  0.73950000  0.91210000  0.28770000  1
  C  C243  1  0.74450000  0.68780000  0.66630000  1
  C  C244  1  0.75550000  0.31220000  0.16630000  1
  C  C245  1  0.76050000  0.08790000  0.78770000  1
  C  C246  1  0.76840000  0.96680000  0.17280000  1
  C  C247  1  0.78990000  0.33190000  0.80590000  1
  C  C248  1  0.79450000  0.73240000  0.71600000  1
  C  C249  1  0.80000000  0.39450000  0.18860000  1
  C  C250  1  0.80750000  0.39970000  0.69860000  1
  C  C251  1  0.81230000  0.60310000  0.94090000  1
  C  C252  1  0.82310000  0.88000000  0.26250000  1
  C  C253  1  0.83760000  0.81660000  0.69870000  1
  C  C254  1  0.84270000  0.08490000  0.38370000  1
  C  C255  1  0.84380000  0.67770000  0.99030000  1
  C  C256  1  0.85270000  0.75870000  0.95720000  1
  C  C257  1  0.86180000  0.29550000  0.76710000  1
  C  C258  1  0.86420000  0.14970000  0.44820000  1
  C  C259  1  0.86430000  0.66650000  0.07000000  1
  C  C260  1  0.87130000  0.11960000  0.52490000  1
  C  C261  1  0.87400000  0.23330000  0.43280000  1
  C  C262  1  0.87570000  0.82720000  0.00580000  1
  C  C263  1  0.88580000  0.73640000  0.11740000  1
  C  C264  1  0.89000000  0.57030000  0.44720000  1
  C  C265  1  0.89170000  0.81900000  0.08410000  1
  C  C266  1  0.89240000  0.17720000  0.58660000  1
  C  C267  1  0.89420000  0.29080000  0.49400000  1
  C  C268  1  0.90420000  0.13840000  0.25350000  1
  C  C269  1  0.90640000  0.26280000  0.57000000  1
  C  C270  1  0.91410000  0.89400000  0.13640000  1
  C  C271  1  0.91490000  0.47400000  0.95850000  1
  C  C272  1  0.93420000  0.54840000  0.85150000  1
  C  C273  1  0.93690000  0.32140000  0.63760000  1
  C  C274  1  0.93980000  0.55040000  0.52340000  1
  C  C275  1  0.95690000  0.60550000  0.57880000  1
  C  C276  1  0.98140000  0.12470000  0.21220000  1
  C  C277  1  0.98300000  0.43840000  0.91680000  1
  C  C278  1  0.98830000  0.04340000  0.31450000  1
  C  C279  1  0.99540000  0.08000000  0.84710000  1
  N  N280  1  0.00490000  0.98720000  0.65180000  1
  N  N281  1  0.03260000  0.06530000  0.25110000  1
  N  N282  1  0.09030000  0.58490000  0.17970000  1
  N  N283  1  0.11580000  0.04420000  0.58290000  1
  N  N284  1  0.13070000  0.83990000  0.80210000  1
  N  N285  1  0.16170000  0.41500000  0.31000000  1
  N  N286  1  0.20780000  0.53300000  0.77090000  1
  N  N287  1  0.24400000  0.89850000  0.73760000  1
  N  N288  1  0.25600000  0.10150000  0.23760000  1
  N  N289  1  0.29220000  0.46700000  0.27090000  1
  N  N290  1  0.33830000  0.58500000  0.81000000  1
  N  N291  1  0.36930000  0.16010000  0.30210000  1
  N  N292  1  0.38420000  0.95580000  0.08290000  1
  N  N293  1  0.40970000  0.41510000  0.67970000  1
  N  N294  1  0.46740000  0.93470000  0.75110000  1
  N  N295  1  0.49510000  0.01280000  0.15180000  1
  N  N296  1  0.50490000  0.51280000  0.34820000  1
  N  N297  1  0.53260000  0.43470000  0.74890000  1
  N  N298  1  0.59030000  0.91510000  0.82030000  1
  N  N299  1  0.61580000  0.45580000  0.41710000  1
  N  N300  1  0.63070000  0.66010000  0.19790000  1
  N  N301  1  0.66170000  0.08500000  0.69000000  1
  N  N302  1  0.70780000  0.96700000  0.22910000  1
  N  N303  1  0.74400000  0.60150000  0.26240000  1
  N  N304  1  0.75600000  0.39850000  0.76240000  1
  N  N305  1  0.79220000  0.03300000  0.72910000  1
  N  N306  1  0.83830000  0.91500000  0.19000000  1
  N  N307  1  0.86930000  0.33990000  0.69790000  1
  N  N308  1  0.88420000  0.54420000  0.91710000  1
  N  N309  1  0.90970000  0.08490000  0.32030000  1
  N  N310  1  0.96740000  0.56530000  0.24890000  1
  N  N311  1  0.99510000  0.48720000  0.84820000  1
  O  O312  1  0.01080000  0.63620000  0.70570000  1
  O  O313  1  0.03540000  0.50440000  0.65850000  1
  O  O314  1  0.12330000  0.00730000  0.09750000  1
  O  O315  1  0.12430000  0.35190000  0.74290000  1
  O  O316  1  0.13240000  0.14660000  0.06900000  1
  O  O317  1  0.16950000  0.35160000  0.86830000  1
  O  O318  1  0.17610000  0.94570000  0.36350000  1
  O  O319  1  0.19410000  0.90990000  0.23740000  1
  O  O320  1  0.30590000  0.09010000  0.73740000  1
  O  O321  1  0.32390000  0.05430000  0.86350000  1
  O  O322  1  0.33050000  0.64840000  0.36830000  1
  O  O323  1  0.36760000  0.85340000  0.56900000  1
  O  O324  1  0.37570000  0.64810000  0.24290000  1
  O  O325  1  0.37670000  0.99270000  0.59750000  1
  O  O326  1  0.46460000  0.49560000  0.15850000  1
  O  O327  1  0.48920000  0.36380000  0.20570000  1
  O  O328  1  0.51080000  0.86380000  0.29430000  1
  O  O329  1  0.53540000  0.99560000  0.34150000  1
  O  O330  1  0.62330000  0.49270000  0.90250000  1
  O  O331  1  0.62430000  0.14810000  0.25710000  1
  O  O332  1  0.63240000  0.35340000  0.93100000  1
  O  O333  1  0.66950000  0.14840000  0.13170000  1
  O  O334  1  0.67610000  0.55430000  0.63650000  1
  O  O335  1  0.69410000  0.59010000  0.76260000  1
  O  O336  1  0.80590000  0.40990000  0.26260000  1
  O  O337  1  0.82390000  0.44570000  0.13650000  1
  O  O338  1  0.83050000  0.85160000  0.63170000  1
  O  O339  1  0.86760000  0.64660000  0.43100000  1
  O  O340  1  0.87570000  0.85190000  0.75710000  1
  O  O341  1  0.87670000  0.50730000  0.40250000  1
  O  O342  1  0.96460000  0.00440000  0.84150000  1
  O  O343  1  0.98920000  0.13620000  0.79430000  1
