# generated using pymatgen
data_CoH10(C2N)4
_symmetry_space_group_name_H-M   'P 1'
_cell_length_a   14.68695996
_cell_length_b   14.68680000
_cell_length_c   14.68680000
_cell_angle_alpha   109.47100000
_cell_angle_beta   109.47144127
_cell_angle_gamma   109.47144127
_symmetry_Int_Tables_number   1
_chemical_formula_structural   CoH10(C2N)4
_chemical_formula_sum   'Co6 H60 C48 N24'
_cell_volume   2438.72707201
_cell_formula_units_Z   6
loop_
 _symmetry_equiv_pos_site_id
 _symmetry_equiv_pos_as_xyz
  1  'x, y, z'
loop_
 _atom_site_type_symbol
 _atom_site_label
 _atom_site_symmetry_multiplicity
 _atom_site_fract_x
 _atom_site_fract_y
 _atom_site_fract_z
 _atom_site_occupancy
  Co  Co0  1  0.25000000  0.75000000  0.50000000  1
  Co  Co1  1  0.50000000  0.25000000  0.75000000  1
  Co  Co2  1  0.25000000  0.50000000  0.75000000  1
  Co  Co3  1  0.75000000  0.50000000  0.25000000  1
  Co  Co4  1  0.50000000  0.75000000  0.25000000  1
  Co  Co5  1  0.75000000  0.25000000  0.50000000  1
  H  H6  1  0.74604000  0.25019000  0.76960000  1
  H  H7  1  0.48972000  0.75403000  0.52659000  1
  H  H8  1  0.49913000  0.89054000  0.55144000  1
  H  H9  1  0.61025000  0.11753000  0.67336000  1
  H  H10  1  0.11656000  0.64492000  0.21889000  1
  H  H11  1  0.47164000  0.35508000  0.57397000  1
  H  H12  1  0.35508000  0.57397000  0.47164000  1
  H  H13  1  0.78111000  0.42603000  0.89767000  1
  H  H14  1  0.31145000  0.92622000  0.44025000  1
  H  H15  1  0.37921000  0.08095000  0.51899000  1
  H  H16  1  0.35508000  0.47164000  0.57397000  1
  H  H17  1  0.88344000  0.52836000  0.10233000  1
  H  H18  1  0.50701000  0.50754000  0.74703000  1
  H  H19  1  0.23638000  0.99282000  0.48910000  1
  H  H20  1  0.08963000  0.52759000  0.35390000  1
  H  H21  1  0.95527000  0.46903000  0.22663000  1
  H  H22  1  0.56108000  0.48320000  0.86543000  1
  H  H23  1  0.42603000  0.89767000  0.78111000  1
  H  H24  1  0.52836000  0.10233000  0.88344000  1
  H  H25  1  0.48356000  0.56091000  0.86624000  1
  H  H26  1  0.95510000  0.45173000  0.34651000  1
  H  H27  1  0.10233000  0.88344000  0.52836000  1
  H  H28  1  0.21889000  0.11656000  0.64492000  1
  H  H29  1  0.71363000  0.62790000  0.15065000  1
  H  H30  1  0.07185000  0.38635000  0.51277000  1
  H  H31  1  0.42603000  0.78111000  0.89767000  1
  H  H32  1  0.64492000  0.21889000  0.11656000  1
  H  H33  1  0.43769000  0.29523000  0.91767000  1
  H  H34  1  0.01048000  0.24546000  0.49789000  1
  H  H35  1  0.11972000  0.67648000  0.61096000  1
  H  H36  1  0.25093000  0.76857000  0.74836000  1
  H  H37  1  0.74836000  0.76857000  0.25093000  1
  H  H38  1  0.61096000  0.67648000  0.11972000  1
  H  H39  1  0.49789000  0.24546000  0.01048000  1
  H  H40  1  0.91767000  0.29523000  0.43769000  1
  H  H41  1  0.11656000  0.21889000  0.64492000  1
  H  H42  1  0.89767000  0.78111000  0.42603000  1
  H  H43  1  0.51276000  0.38635000  0.07184000  1
  H  H44  1  0.15065000  0.62790000  0.71363000  1
  H  H45  1  0.52836000  0.88344000  0.10233000  1
  H  H46  1  0.64492000  0.11656000  0.21889000  1
  H  H47  1  0.34652000  0.45174000  0.95511000  1
  H  H48  1  0.86624000  0.56092000  0.48356000  1
  H  H49  1  0.78111000  0.89767000  0.42603000  1
  H  H50  1  0.88344000  0.10233000  0.52836000  1
  H  H51  1  0.86543000  0.48320000  0.56108000  1
  H  H52  1  0.22663000  0.46903000  0.95527000  1
  H  H53  1  0.35390000  0.52758000  0.08963000  1
  H  H54  1  0.48910000  0.99282000  0.23638000  1
  H  H55  1  0.74703000  0.50754000  0.50701000  1
  H  H56  1  0.10233000  0.52836000  0.88344000  1
  H  H57  1  0.57397000  0.47164000  0.35508000  1
  H  H58  1  0.51900000  0.08096000  0.37922000  1
  H  H59  1  0.44025000  0.92622000  0.31145000  1
  H  H60  1  0.47164000  0.57397000  0.35508000  1
  H  H61  1  0.89767000  0.42603000  0.78111000  1
  H  H62  1  0.21889000  0.64492000  0.11656000  1
  H  H63  1  0.57397000  0.35508000  0.47164000  1
  H  H64  1  0.56280000  0.83412000  0.47362000  1
  H  H65  1  0.71667000  0.15359000  0.63000000  1
  C  C66  1  0.21050000  0.67980000  0.26530000  1
  C  C67  1  0.53070000  0.32020000  0.58550000  1
  C  C68  1  0.32140000  0.00000000  0.51000000  1
  C  C69  1  0.32020000  0.58550000  0.53070000  1
  C  C70  1  0.73470000  0.41450000  0.94520000  1
  C  C71  1  0.37000000  0.00000000  0.61680000  1
  C  C72  1  0.32020000  0.53070000  0.58550000  1
  C  C73  1  0.78950000  0.46930000  0.05480000  1
  C  C74  1  0.41450000  0.94520000  0.73470000  1
  C  C75  1  0.46930000  0.05480000  0.78950000  1
  C  C76  1  0.49000000  0.49000000  0.81140000  1
  C  C77  1  0.00000000  0.51000000  0.32140000  1
  C  C78  1  0.38320000  0.38320000  0.75320000  1
  C  C79  1  0.00000000  0.61680000  0.37000000  1
  C  C80  1  0.24680000  0.63000000  0.63000000  1
  C  C81  1  0.61680000  0.37000000  1.00000000  1
  C  C82  1  0.05480000  0.78950000  0.46930000  1
  C  C83  1  0.26530000  0.21050000  0.67980000  1
  C  C84  1  0.21050000  0.26530000  0.67980000  1
  C  C85  1  0.94520000  0.73470000  0.41450000  1
  C  C86  1  0.18860000  0.67860000  0.67860000  1
  C  C87  1  0.51000000  0.32140000  0.00000000  1
  C  C88  1  0.67860000  0.67860000  0.18860000  1
  C  C89  1  0.00000000  0.32140000  0.51000000  1
  C  C90  1  0.41450000  0.73470000  0.94520000  1
  C  C91  1  0.67980000  0.26530000  0.21050000  1
  C  C92  1  0.46930000  0.78950000  0.05480000  1
  C  C93  1  0.67980000  0.21050000  0.26530000  1
  C  C94  1  0.63000000  0.63000000  0.24680000  1
  C  C95  1  1.00000000  0.37000000  0.61680000  1
  C  C96  1  0.37000000  0.61680000  1.00000000  1
  C  C97  1  0.75320000  0.38320000  0.38320000  1
  C  C98  1  0.32140000  0.51000000  0.00000000  1
  C  C99  1  0.81140000  0.49000000  0.49000000  1
  C  C100  1  0.73470000  0.94520000  0.41450000  1
  C  C101  1  0.78950000  0.05480000  0.46930000  1
  C  C102  1  0.05480000  0.46930000  0.78950000  1
  C  C103  1  0.58550000  0.53070000  0.32020000  1
  C  C104  1  0.61680000  0.00000000  0.37000000  1
  C  C105  1  0.53070000  0.58550000  0.32020000  1
  C  C106  1  0.94520000  0.41450000  0.73470000  1
  C  C107  1  0.51000000  0.00000000  0.32140000  1
  C  C108  1  0.26530000  0.67980000  0.21050000  1
  C  C109  1  0.58550000  0.32020000  0.53070000  1
  C  C110  1  0.49000000  0.81140000  0.49000000  1
  C  C111  1  0.38320000  0.75320000  0.38320000  1
  C  C112  1  0.67860000  0.18860000  0.67860000  1
  C  C113  1  0.63000000  0.24680000  0.63000000  1
  N  N114  1  0.28530000  0.72650000  0.37840000  1
  N  N115  1  0.55880000  0.27350000  0.65190000  1
  N  N116  1  0.34810000  0.90690000  0.62160000  1
  N  N117  1  0.44120000  0.09310000  0.71470000  1
  N  N118  1  0.27350000  0.65190000  0.55880000  1
  N  N119  1  0.62160000  0.34810000  0.90690000  1
  N  N120  1  0.09310000  0.71470000  0.44120000  1
  N  N121  1  0.37840000  0.28530000  0.72650000  1
  N  N122  1  0.27350000  0.55880000  0.65190000  1
  N  N123  1  0.71470000  0.44120000  0.09310000  1
  N  N124  1  0.28530000  0.37840000  0.72650000  1
  N  N125  1  0.90690000  0.62160000  0.34810000  1
  N  N126  1  0.34810000  0.62160000  0.90690000  1
  N  N127  1  0.72650000  0.37840000  0.28530000  1
  N  N128  1  0.09310000  0.44120000  0.71470000  1
  N  N129  1  0.65190000  0.55880000  0.27350000  1
  N  N130  1  0.44120000  0.71470000  0.09310000  1
  N  N131  1  0.72650000  0.28530000  0.37840000  1
  N  N132  1  0.55880000  0.65190000  0.27350000  1
  N  N133  1  0.90690000  0.34810000  0.62160000  1
  N  N134  1  0.62160000  0.90690000  0.34810000  1
  N  N135  1  0.71470000  0.09310000  0.44120000  1
  N  N136  1  0.37840000  0.72650000  0.28530000  1
  N  N137  1  0.65190000  0.27350000  0.55880000  1
