# generated using pymatgen
data_Co2Mo5P2H22C27(N3O7)2
_symmetry_space_group_name_H-M   'P 1'
_cell_length_a   8.90700000
_cell_length_b   18.93200000
_cell_length_c   28.64400000
_cell_angle_alpha   90.00000000
_cell_angle_beta   98.64100000
_cell_angle_gamma   90.00000000
_symmetry_Int_Tables_number   1
_chemical_formula_structural   Co2Mo5P2H22C27(N3O7)2
_chemical_formula_sum   'Co8 Mo20 P8 H88 C108 N24 O56'
_cell_volume   4775.33450281
_cell_formula_units_Z   4
loop_
 _symmetry_equiv_pos_site_id
 _symmetry_equiv_pos_as_xyz
  1  'x, y, z'
loop_
 _atom_site_type_symbol
 _atom_site_label
 _atom_site_symmetry_multiplicity
 _atom_site_fract_x
 _atom_site_fract_y
 _atom_site_fract_z
 _atom_site_occupancy
  Co  Co0  1  0.09004000  0.22313000  0.96194000  1
  Co  Co1  1  0.17564000  0.53870000  0.71952000  1
  Co  Co2  1  0.32436000  0.03870000  0.78048000  1
  Co  Co3  1  0.40996000  0.72313000  0.53806000  1
  Co  Co4  1  0.59004000  0.27687000  0.46194000  1
  Co  Co5  1  0.67564000  0.96130000  0.21952000  1
  Co  Co6  1  0.82436000  0.46130000  0.28048000  1
  Co  Co7  1  0.90996000  0.77687000  0.03806000  1
  Mo  Mo8  1  0.03242000  0.87047000  0.42639000  1
  Mo  Mo9  1  0.03662000  0.13066000  0.69240000  1
  Mo  Mo10  1  0.06773000  0.68229000  0.45874000  1
  Mo  Mo11  1  0.10269000  0.40500000  0.63579000  1
  Mo  Mo12  1  0.14324000  0.29255000  0.72949000  1
  Mo  Mo13  1  0.35676000  0.79255000  0.77051000  1
  Mo  Mo14  1  0.39731000  0.90500000  0.86421000  1
  Mo  Mo15  1  0.43227000  0.18229000  0.04126000  1
  Mo  Mo16  1  0.46338000  0.63066000  0.80760000  1
  Mo  Mo17  1  0.46758000  0.37047000  0.07361000  1
  Mo  Mo18  1  0.53242000  0.62953000  0.92639000  1
  Mo  Mo19  1  0.53662000  0.36934000  0.19240000  1
  Mo  Mo20  1  0.56773000  0.81771000  0.95874000  1
  Mo  Mo21  1  0.60269000  0.09500000  0.13579000  1
  Mo  Mo22  1  0.64324000  0.20745000  0.22949000  1
  Mo  Mo23  1  0.85676000  0.70745000  0.27051000  1
  Mo  Mo24  1  0.89731000  0.59500000  0.36421000  1
  Mo  Mo25  1  0.93227000  0.31771000  0.54126000  1
  Mo  Mo26  1  0.96338000  0.86934000  0.30760000  1
  Mo  Mo27  1  0.96758000  0.12953000  0.57361000  1
  P  P28  1  0.17097000  0.72989000  0.35694000  1
  P  P29  1  0.23283000  0.23915000  0.62229000  1
  P  P30  1  0.26717000  0.73915000  0.87771000  1
  P  P31  1  0.32903000  0.22989000  0.14306000  1
  P  P32  1  0.67097000  0.77011000  0.85694000  1
  P  P33  1  0.73283000  0.26085000  0.12229000  1
  P  P34  1  0.76717000  0.76085000  0.37771000  1
  P  P35  1  0.82903000  0.27011000  0.64306000  1
  H  H36  1  0.00770000  0.70040000  0.81620000  1
  H  H37  1  0.03640000  0.02130000  0.09400000  1
  H  H38  1  0.04610000  0.77530000  0.90190000  1
  H  H39  1  0.06510000  0.31730000  0.13860000  1
  H  H40  1  0.07050000  0.81580000  0.85590000  1
  H  H41  1  0.07580000  0.92230000  0.63520000  1
  H  H42  1  0.08410000  0.27600000  0.38380000  1
  H  H43  1  0.09560000  0.92540000  0.73330000  1
  H  H44  1  0.11000000  0.80660000  0.66090000  1
  H  H45  1  0.11920000  0.40040000  0.24860000  1
  H  H46  1  0.15270000  0.10840000  0.26740000  1
  H  H47  1  0.15390000  0.95590000  0.56520000  1
  H  H48  1  0.15480000  0.19250000  0.18840000  1
  H  H49  1  0.15840000  0.85360000  0.99070000  1
  H  H50  1  0.17650000  0.97250000  0.16120000  1
  H  H51  1  0.18100000  0.82830000  0.22020000  1
  H  H52  1  0.19580000  0.76820000  0.15030000  1
  H  H53  1  0.19750000  0.05110000  0.04010000  1
  H  H54  1  0.20680000  0.55630000  0.28580000  1
  H  H55  1  0.22220000  0.37460000  0.97550000  1
  H  H56  1  0.22760000  0.26350000  0.20810000  1
  H  H57  1  0.23460000  0.46480000  0.51030000  1
  H  H58  1  0.26540000  0.96480000  0.98970000  1
  H  H59  1  0.27240000  0.76350000  0.29190000  1
  H  H60  1  0.27780000  0.87460000  0.52450000  1
  H  H61  1  0.29320000  0.05630000  0.21420000  1
  H  H62  1  0.30250000  0.55110000  0.45990000  1
  H  H63  1  0.30420000  0.26820000  0.34970000  1
  H  H64  1  0.31900000  0.32830000  0.27980000  1
  H  H65  1  0.32350000  0.47250000  0.33880000  1
  H  H66  1  0.34160000  0.35360000  0.50930000  1
  H  H67  1  0.34520000  0.69250000  0.31160000  1
  H  H68  1  0.34610000  0.45590000  0.93480000  1
  H  H69  1  0.34730000  0.60840000  0.23260000  1
  H  H70  1  0.38080000  0.90040000  0.25140000  1
  H  H71  1  0.39000000  0.30660000  0.83910000  1
  H  H72  1  0.40440000  0.42540000  0.76670000  1
  H  H73  1  0.41590000  0.77600000  0.11620000  1
  H  H74  1  0.42420000  0.42230000  0.86480000  1
  H  H75  1  0.42950000  0.31580000  0.64410000  1
  H  H76  1  0.43490000  0.81730000  0.36140000  1
  H  H77  1  0.45390000  0.27530000  0.59810000  1
  H  H78  1  0.46360000  0.52130000  0.40600000  1
  H  H79  1  0.49230000  0.20040000  0.68380000  1
  H  H80  1  0.50770000  0.79960000  0.31620000  1
  H  H81  1  0.53640000  0.47870000  0.59400000  1
  H  H82  1  0.54610000  0.72470000  0.40190000  1
  H  H83  1  0.56510000  0.18270000  0.63860000  1
  H  H84  1  0.57050000  0.68420000  0.35590000  1
  H  H85  1  0.57580000  0.57770000  0.13520000  1
  H  H86  1  0.58410000  0.22400000  0.88380000  1
  H  H87  1  0.59560000  0.57460000  0.23330000  1
  H  H88  1  0.61000000  0.69340000  0.16090000  1
  H  H89  1  0.61920000  0.09960000  0.74860000  1
  H  H90  1  0.65270000  0.39160000  0.76740000  1
  H  H91  1  0.65390000  0.54410000  0.06520000  1
  H  H92  1  0.65480000  0.30750000  0.68840000  1
  H  H93  1  0.65840000  0.64640000  0.49070000  1
  H  H94  1  0.67650000  0.52750000  0.66120000  1
  H  H95  1  0.68100000  0.67170000  0.72020000  1
  H  H96  1  0.69580000  0.73180000  0.65030000  1
  H  H97  1  0.69750000  0.44890000  0.54010000  1
  H  H98  1  0.70680000  0.94370000  0.78580000  1
  H  H99  1  0.72220000  0.12540000  0.47550000  1
  H  H100  1  0.72760000  0.23650000  0.70810000  1
  H  H101  1  0.73460000  0.03520000  0.01030000  1
  H  H102  1  0.76540000  0.53520000  0.48970000  1
  H  H103  1  0.77240000  0.73650000  0.79190000  1
  H  H104  1  0.77780000  0.62540000  0.02450000  1
  H  H105  1  0.79320000  0.44370000  0.71420000  1
  H  H106  1  0.80250000  0.94890000  0.95990000  1
  H  H107  1  0.80420000  0.23180000  0.84970000  1
  H  H108  1  0.81900000  0.17170000  0.77980000  1
  H  H109  1  0.82350000  0.02750000  0.83880000  1
  H  H110  1  0.84160000  0.14640000  0.00930000  1
  H  H111  1  0.84520000  0.80750000  0.81160000  1
  H  H112  1  0.84610000  0.04410000  0.43480000  1
  H  H113  1  0.84730000  0.89160000  0.73260000  1
  H  H114  1  0.88080000  0.59960000  0.75140000  1
  H  H115  1  0.89000000  0.19340000  0.33910000  1
  H  H116  1  0.90440000  0.07460000  0.26670000  1
  H  H117  1  0.91590000  0.72400000  0.61620000  1
  H  H118  1  0.92420000  0.07770000  0.36480000  1
  H  H119  1  0.92950000  0.18420000  0.14410000  1
  H  H120  1  0.93490000  0.68270000  0.86140000  1
  H  H121  1  0.95390000  0.22470000  0.09810000  1
  H  H122  1  0.96360000  0.97870000  0.90600000  1
  H  H123  1  0.99230000  0.29960000  0.18380000  1
  C  C124  1  0.01650000  0.91817000  0.07578000  1
  C  C125  1  0.02880000  0.66093000  0.66693000  1
  C  C126  1  0.02960000  0.02121000  0.81773000  1
  C  C127  1  0.03870000  0.27908000  0.15838000  1
  C  C128  1  0.04040000  0.94537000  0.75509000  1
  C  C129  1  0.06610000  0.98730000  0.07377000  1
  C  C130  1  0.07550000  0.76965000  0.87084000  1
  C  C131  1  0.08160000  0.10770000  0.89026000  1
  C  C132  1  0.09160000  0.29940000  0.35565000  1
  C  C133  1  0.10890000  0.07476000  0.24583000  1
  C  C134  1  0.11150000  0.37404000  0.27549000  1
  C  C135  1  0.11620000  0.07560000  0.84887000  1
  C  C136  1  0.12170000  0.88970000  0.61754000  1
  C  C137  1  0.12210000  0.99470000  0.18229000  1
  C  C138  1  0.13720000  0.88720000  0.01248000  1
  C  C139  1  0.14140000  0.82083000  0.63288000  1
  C  C140  1  0.16060000  0.00520000  0.04132000  1
  C  C141  1  0.16960000  0.91004000  0.57644000  1
  C  C142  1  0.17710000  0.65412000  0.64987000  1
  C  C143  1  0.18390000  0.23935000  0.17942000  1
  C  C144  1  0.19210000  0.04400000  0.21414000  1
  C  C145  1  0.19910000  0.95440000  0.01095000  1
  C  C146  1  0.20900000  0.77318000  0.60570000  1
  C  C147  1  0.22290000  0.29540000  0.33556000  1
  C  C148  1  0.23290000  0.33190000  0.29447000  1
  C  C149  1  0.24220000  0.86055000  0.55192000  1
  C  C150  1  0.24310000  0.69827000  0.61871000  1
  C  C151  1  0.25690000  0.19827000  0.88129000  1
  C  C152  1  0.25780000  0.36055000  0.94808000  1
  C  C153  1  0.26710000  0.83190000  0.20553000  1
  C  C154  1  0.27710000  0.79540000  0.16444000  1
  C  C155  1  0.29100000  0.27318000  0.89430000  1
  C  C156  1  0.30090000  0.45440000  0.48905000  1
  C  C157  1  0.30790000  0.54400000  0.28586000  1
  C  C158  1  0.31610000  0.73935000  0.32058000  1
  C  C159  1  0.32290000  0.15412000  0.85013000  1
  C  C160  1  0.33040000  0.41004000  0.92356000  1
  C  C161  1  0.33940000  0.50520000  0.45868000  1
  C  C162  1  0.35860000  0.32083000  0.86712000  1
  C  C163  1  0.36280000  0.38720000  0.48752000  1
  C  C164  1  0.37790000  0.49470000  0.31771000  1
  C  C165  1  0.37830000  0.38970000  0.88246000  1
  C  C166  1  0.38380000  0.57560000  0.65113000  1
  C  C167  1  0.38850000  0.87404000  0.22451000  1
  C  C168  1  0.39110000  0.57476000  0.25417000  1
  C  C169  1  0.40840000  0.79940000  0.14435000  1
  C  C170  1  0.41840000  0.60770000  0.60974000  1
  C  C171  1  0.42450000  0.26965000  0.62916000  1
  C  C172  1  0.43390000  0.48730000  0.42623000  1
  C  C173  1  0.45960000  0.44537000  0.74491000  1
  C  C174  1  0.46130000  0.77908000  0.34162000  1
  C  C175  1  0.47040000  0.52121000  0.68227000  1
  C  C176  1  0.47120000  0.16093000  0.83307000  1
  C  C177  1  0.48350000  0.41817000  0.42422000  1
  C  C178  1  0.51650000  0.58183000  0.57578000  1
  C  C179  1  0.52880000  0.83907000  0.16693000  1
  C  C180  1  0.52960000  0.47879000  0.31773000  1
  C  C181  1  0.53870000  0.22092000  0.65838000  1
  C  C182  1  0.54040000  0.55463000  0.25509000  1
  C  C183  1  0.56610000  0.51270000  0.57377000  1
  C  C184  1  0.57550000  0.73035000  0.37084000  1
  C  C185  1  0.58160000  0.39230000  0.39026000  1
  C  C186  1  0.59160000  0.20060000  0.85565000  1
  C  C187  1  0.60890000  0.42524000  0.74583000  1
  C  C188  1  0.61150000  0.12596000  0.77549000  1
  C  C189  1  0.61620000  0.42440000  0.34887000  1
  C  C190  1  0.62170000  0.61030000  0.11754000  1
  C  C191  1  0.62210000  0.50530000  0.68229000  1
  C  C192  1  0.63720000  0.61280000  0.51248000  1
  C  C193  1  0.64140000  0.67917000  0.13288000  1
  C  C194  1  0.66060000  0.49480000  0.54132000  1
  C  C195  1  0.66960000  0.58996000  0.07644000  1
  C  C196  1  0.67710000  0.84588000  0.14987000  1
  C  C197  1  0.68390000  0.26065000  0.67942000  1
  C  C198  1  0.69210000  0.45600000  0.71414000  1
  C  C199  1  0.69910000  0.54560000  0.51095000  1
  C  C200  1  0.70900000  0.72682000  0.10570000  1
  C  C201  1  0.72290000  0.20460000  0.83556000  1
  C  C202  1  0.73290000  0.16810000  0.79447000  1
  C  C203  1  0.74220000  0.63945000  0.05192000  1
  C  C204  1  0.74310000  0.80173000  0.11871000  1
  C  C205  1  0.75690000  0.30173000  0.38129000  1
  C  C206  1  0.75780000  0.13945000  0.44808000  1
  C  C207  1  0.76710000  0.66810000  0.70553000  1
  C  C208  1  0.77710000  0.70460000  0.66444000  1
  C  C209  1  0.79100000  0.22682000  0.39430000  1
  C  C210  1  0.80090000  0.04560000  0.98905000  1
  C  C211  1  0.80790000  0.95600000  0.78586000  1
  C  C212  1  0.81610000  0.76065000  0.82058000  1
  C  C213  1  0.82290000  0.34588000  0.35013000  1
  C  C214  1  0.83040000  0.08996000  0.42356000  1
  C  C215  1  0.83940000  0.99480000  0.95868000  1
  C  C216  1  0.85860000  0.17917000  0.36712000  1
  C  C217  1  0.86280000  0.11280000  0.98752000  1
  C  C218  1  0.87790000  0.00530000  0.81771000  1
  C  C219  1  0.87830000  0.11030000  0.38246000  1
  C  C220  1  0.88380000  0.92440000  0.15113000  1
  C  C221  1  0.88850000  0.62596000  0.72451000  1
  C  C222  1  0.89110000  0.92524000  0.75417000  1
  C  C223  1  0.90840000  0.70060000  0.64435000  1
  C  C224  1  0.91840000  0.89230000  0.10974000  1
  C  C225  1  0.92450000  0.23035000  0.12916000  1
  C  C226  1  0.93390000  0.01270000  0.92623000  1
  C  C227  1  0.95960000  0.05463000  0.24491000  1
  C  C228  1  0.96130000  0.72092000  0.84162000  1
  C  C229  1  0.97040000  0.97879000  0.18227000  1
  C  C230  1  0.97120000  0.33907000  0.33307000  1
  C  C231  1  0.98350000  0.08183000  0.92422000  1
  N  N232  1  0.01560000  0.62194000  0.70550000  1
  N  N233  1  0.04800000  0.86907000  0.04431000  1
  N  N234  1  0.10900000  0.99243000  0.78599000  1
  N  N235  1  0.14640000  0.17026000  0.90215000  1
  N  N236  1  0.23710000  0.29373000  0.93384000  1
  N  N237  1  0.24330000  0.09731000  0.83322000  1
  N  N238  1  0.25670000  0.59731000  0.66678000  1
  N  N239  1  0.26290000  0.79373000  0.56616000  1
  N  N240  1  0.35360000  0.67026000  0.59785000  1
  N  N241  1  0.39100000  0.49243000  0.71401000  1
  N  N242  1  0.45200000  0.36907000  0.45569000  1
  N  N243  1  0.48440000  0.12194000  0.79450000  1
  N  N244  1  0.51560000  0.87806000  0.20550000  1
  N  N245  1  0.54800000  0.63093000  0.54431000  1
  N  N246  1  0.60900000  0.50757000  0.28599000  1
  N  N247  1  0.64640000  0.32974000  0.40215000  1
  N  N248  1  0.73710000  0.20627000  0.43384000  1
  N  N249  1  0.74330000  0.40269000  0.33322000  1
  N  N250  1  0.75670000  0.90269000  0.16678000  1
  N  N251  1  0.76290000  0.70627000  0.06616000  1
  N  N252  1  0.85360000  0.82974000  0.09785000  1
  N  N253  1  0.89100000  0.00757000  0.21401000  1
  N  N254  1  0.95200000  0.13093000  0.95569000  1
  N  N255  1  0.98440000  0.37806000  0.29450000  1
  O  O256  1  0.01860000  0.21111000  0.73208000  1
  O  O257  1  0.03860000  0.47479000  0.66696000  1
  O  O258  1  0.04560000  0.59917000  0.41985000  1
  O  O259  1  0.05050000  0.08660000  0.63250000  1
  O  O260  1  0.05480000  0.67719000  0.33166000  1
  O  O261  1  0.06590000  0.78207000  0.45895000  1
  O  O262  1  0.09890000  0.80391000  0.36118000  1
  O  O263  1  0.13050000  0.30143000  0.60201000  1
  O  O264  1  0.19550000  0.09226000  0.72413000  1
  O  O265  1  0.19760000  0.21784000  0.67137000  1
  O  O266  1  0.20680000  0.17740000  0.58852000  1
  O  O267  1  0.21940000  0.35924000  0.68944000  1
  O  O268  1  0.23330000  0.66434000  0.49692000  1
  O  O269  1  0.23450000  0.70520000  0.40625000  1
  O  O270  1  0.26550000  0.20520000  0.09375000  1
  O  O271  1  0.26670000  0.16434000  0.00308000  1
  O  O272  1  0.28060000  0.85924000  0.81056000  1
  O  O273  1  0.29320000  0.67740000  0.91148000  1
  O  O274  1  0.30240000  0.71784000  0.82863000  1
  O  O275  1  0.30450000  0.59226000  0.77587000  1
  O  O276  1  0.36950000  0.80143000  0.89799000  1
  O  O277  1  0.40110000  0.30391000  0.13882000  1
  O  O278  1  0.43410000  0.28207000  0.04105000  1
  O  O279  1  0.44520000  0.17719000  0.16834000  1
  O  O280  1  0.44950000  0.58660000  0.86750000  1
  O  O281  1  0.45440000  0.09917000  0.08015000  1
  O  O282  1  0.46140000  0.97479000  0.83304000  1
  O  O283  1  0.48140000  0.71111000  0.76792000  1
  O  O284  1  0.51860000  0.28889000  0.23208000  1
  O  O285  1  0.53860000  0.02521000  0.16696000  1
  O  O286  1  0.54560000  0.90083000  0.91985000  1
  O  O287  1  0.55050000  0.41340000  0.13250000  1
  O  O288  1  0.55480000  0.82281000  0.83166000  1
  O  O289  1  0.56590000  0.71793000  0.95895000  1
  O  O290  1  0.59890000  0.69609000  0.86118000  1
  O  O291  1  0.63050000  0.19857000  0.10201000  1
  O  O292  1  0.69550000  0.40774000  0.22413000  1
  O  O293  1  0.69760000  0.28216000  0.17137000  1
  O  O294  1  0.70680000  0.32260000  0.08852000  1
  O  O295  1  0.71940000  0.14076000  0.18944000  1
  O  O296  1  0.73330000  0.83566000  0.99692000  1
  O  O297  1  0.73450000  0.79480000  0.90625000  1
  O  O298  1  0.76550000  0.29480000  0.59375000  1
  O  O299  1  0.76670000  0.33566000  0.50308000  1
  O  O300  1  0.78060000  0.64076000  0.31056000  1
  O  O301  1  0.79320000  0.82260000  0.41148000  1
  O  O302  1  0.80240000  0.78216000  0.32863000  1
  O  O303  1  0.80450000  0.90774000  0.27587000  1
  O  O304  1  0.86950000  0.69857000  0.39799000  1
  O  O305  1  0.90110000  0.19609000  0.63882000  1
  O  O306  1  0.93410000  0.21793000  0.54105000  1
  O  O307  1  0.94520000  0.32281000  0.66834000  1
  O  O308  1  0.94950000  0.91340000  0.36750000  1
  O  O309  1  0.95440000  0.40083000  0.58015000  1
  O  O310  1  0.96140000  0.52521000  0.33304000  1
  O  O311  1  0.98140000  0.78889000  0.26792000  1
