# generated using pymatgen
data_Mn(C2N3)3
_symmetry_space_group_name_H-M   'P 1'
_cell_length_a   10.49600000
_cell_length_b   12.39600000
_cell_length_c   16.25400000
_cell_angle_alpha   90.00000000
_cell_angle_beta   90.00000000
_cell_angle_gamma   90.00000000
_symmetry_Int_Tables_number   1
_chemical_formula_structural   Mn(C2N3)3
_chemical_formula_sum   'Mn4 C24 N36'
_cell_volume   2114.78219366
_cell_formula_units_Z   4
loop_
 _symmetry_equiv_pos_site_id
 _symmetry_equiv_pos_as_xyz
  1  'x, y, z'
loop_
 _atom_site_type_symbol
 _atom_site_label
 _atom_site_symmetry_multiplicity
 _atom_site_fract_x
 _atom_site_fract_y
 _atom_site_fract_z
 _atom_site_occupancy
  Mn  Mn0  1  0.22651000  0.04889000  0.79988000  1
  Mn  Mn1  1  0.27349000  0.95111000  0.29988000  1
  Mn  Mn2  1  0.72651000  0.45111000  0.20012000  1
  Mn  Mn3  1  0.77349000  0.54889000  0.70012000  1
  C  C4  1  0.00420000  0.69980000  0.75990000  1
  C  C5  1  0.05610000  0.14190000  0.31880000  1
  C  C6  1  0.08210000  0.78140000  0.20600000  1
  C  C7  1  0.08620000  0.83800000  0.83420000  1
  C  C8  1  0.14750000  0.93710000  0.61870000  1
  C  C9  1  0.17110000  0.89460000  0.48440000  1
  C  C10  1  0.32890000  0.10540000  0.98440000  1
  C  C11  1  0.35250000  0.06290000  0.11870000  1
  C  C12  1  0.41380000  0.16200000  0.33420000  1
  C  C13  1  0.41790000  0.21860000  0.70600000  1
  C  C14  1  0.44390000  0.85810000  0.81880000  1
  C  C15  1  0.49580000  0.30020000  0.25990000  1
  C  C16  1  0.50420000  0.80020000  0.24010000  1
  C  C17  1  0.55610000  0.35810000  0.68120000  1
  C  C18  1  0.58210000  0.71860000  0.79400000  1
  C  C19  1  0.58620000  0.66200000  0.16580000  1
  C  C20  1  0.64750000  0.56290000  0.38130000  1
  C  C21  1  0.67110000  0.60540000  0.51560000  1
  C  C22  1  0.82890000  0.39460000  0.01560000  1
  C  C23  1  0.85250000  0.43710000  0.88130000  1
  C  C24  1  0.91380000  0.33800000  0.66580000  1
  C  C25  1  0.91790000  0.28140000  0.29400000  1
  C  C26  1  0.94390000  0.64190000  0.18120000  1
  C  C27  1  0.99580000  0.19980000  0.74010000  1
  N  N28  1  0.01650000  0.72130000  0.15580000  1
  N  N29  1  0.06250000  0.16010000  0.78690000  1
  N  N30  1  0.08650000  0.73610000  0.81270000  1
  N  N31  1  0.09750000  0.92390000  0.85710000  1
  N  N32  1  0.10910000  0.88740000  0.55240000  1
  N  N33  1  0.11680000  0.07100000  0.30870000  1
  N  N34  1  0.14640000  0.83470000  0.23980000  1
  N  N35  1  0.17150000  0.97710000  0.67850000  1
  N  N36  1  0.21880000  0.89020000  0.42240000  1
  N  N37  1  0.28120000  0.10980000  0.92240000  1
  N  N38  1  0.32850000  0.02290000  0.17850000  1
  N  N39  1  0.35360000  0.16530000  0.73980000  1
  N  N40  1  0.38320000  0.92900000  0.80870000  1
  N  N41  1  0.39090000  0.11260000  0.05240000  1
  N  N42  1  0.40250000  0.07610000  0.35710000  1
  N  N43  1  0.41350000  0.26390000  0.31270000  1
  N  N44  1  0.43750000  0.83990000  0.28690000  1
  N  N45  1  0.48350000  0.27870000  0.65580000  1
  N  N46  1  0.51650000  0.77870000  0.84420000  1
  N  N47  1  0.56250000  0.33990000  0.21310000  1
  N  N48  1  0.58650000  0.76390000  0.18730000  1
  N  N49  1  0.59750000  0.57610000  0.14290000  1
  N  N50  1  0.60910000  0.61260000  0.44760000  1
  N  N51  1  0.61680000  0.42900000  0.69130000  1
  N  N52  1  0.64640000  0.66530000  0.76020000  1
  N  N53  1  0.67150000  0.52290000  0.32150000  1
  N  N54  1  0.71880000  0.60980000  0.57760000  1
  N  N55  1  0.78120000  0.39020000  0.07760000  1
  N  N56  1  0.82850000  0.47710000  0.82150000  1
  N  N57  1  0.85360000  0.33470000  0.26020000  1
  N  N58  1  0.88320000  0.57100000  0.19130000  1
  N  N59  1  0.89090000  0.38740000  0.94760000  1
  N  N60  1  0.90250000  0.42390000  0.64290000  1
  N  N61  1  0.91350000  0.23610000  0.68730000  1
  N  N62  1  0.93750000  0.66010000  0.71310000  1
  N  N63  1  0.98350000  0.22130000  0.34420000  1
