# generated using pymatgen
data_Co2H8C17O11
_symmetry_space_group_name_H-M   'P 1'
_cell_length_a   10.20670000
_cell_length_b   11.12970000
_cell_length_c   13.92510000
_cell_angle_alpha   112.66300000
_cell_angle_beta   104.57400000
_cell_angle_gamma   94.79600000
_symmetry_Int_Tables_number   1
_chemical_formula_structural   Co2H8C17O11
_chemical_formula_sum   'Co4 H16 C34 O22'
_cell_volume   1383.57339917
_cell_formula_units_Z   2
loop_
 _symmetry_equiv_pos_site_id
 _symmetry_equiv_pos_as_xyz
  1  'x, y, z'
loop_
 _atom_site_type_symbol
 _atom_site_label
 _atom_site_symmetry_multiplicity
 _atom_site_fract_x
 _atom_site_fract_y
 _atom_site_fract_z
 _atom_site_occupancy
  Co  Co0  1  0.38618000  0.07824000  0.69760000  1
  Co  Co1  1  0.49430000  0.13633000  0.49098000  1
  Co  Co2  1  0.50570000  0.86367000  0.50902000  1
  Co  Co3  1  0.61382000  0.92176000  0.30240000  1
  H  H4  1  0.02710000  0.45230000  0.81690000  1
  H  H5  1  0.07850000  0.96670000  0.30650000  1
  H  H6  1  0.14050000  0.53000000  0.93570000  1
  H  H7  1  0.20010000  0.30930000  0.97430000  1
  H  H8  1  0.21060000  0.73080000  0.05920000  1
  H  H9  1  0.21110000  0.78090000  0.77400000  1
  H  H10  1  0.22090000  0.42030000  0.77850000  1
  H  H11  1  0.41580000  0.53260000  0.59690000  1
  H  H12  1  0.58420000  0.46740000  0.40310000  1
  H  H13  1  0.77910000  0.57970000  0.22150000  1
  H  H14  1  0.78890000  0.21910000  0.22600000  1
  H  H15  1  0.78940000  0.26920000  0.94080000  1
  H  H16  1  0.79990000  0.69070000  0.02570000  1
  H  H17  1  0.85950000  0.47000000  0.06430000  1
  H  H18  1  0.92150000  0.03330000  0.69350000  1
  H  H19  1  0.97290000  0.54770000  0.18310000  1
  C  C20  1  0.00100000  0.69450000  0.02860000  1
  C  C21  1  0.05850000  0.89840000  0.23480000  1
  C  C22  1  0.06470000  0.53970000  0.88050000  1
  C  C23  1  0.07710000  0.16510000  0.82640000  1
  C  C24  1  0.10720000  0.26710000  0.93130000  1
  C  C25  1  0.13770000  0.75790000  0.08810000  1
  C  C26  1  0.16550000  0.86210000  0.19140000  1
  C  C27  1  0.19270000  0.12840000  0.77900000  1
  C  C28  1  0.20030000  0.60280000  0.78280000  1
  C  C29  1  0.24050000  0.69860000  0.75010000  1
  C  C30  1  0.24450000  0.48330000  0.75200000  1
  C  C31  1  0.31230000  0.93090000  0.25780000  1
  C  C32  1  0.32380000  0.67500000  0.68250000  1
  C  C33  1  0.32420000  0.45760000  0.68130000  1
  C  C34  1  0.36270000  0.55190000  0.64610000  1
  C  C35  1  0.37100000  0.78110000  0.65060000  1
  C  C36  1  0.37230000  0.32820000  0.64680000  1
  C  C37  1  0.62770000  0.67180000  0.35320000  1
  C  C38  1  0.62900000  0.21890000  0.34940000  1
  C  C39  1  0.63730000  0.44810000  0.35390000  1
  C  C40  1  0.67580000  0.54240000  0.31870000  1
  C  C41  1  0.67620000  0.32500000  0.31750000  1
  C  C42  1  0.68770000  0.06910000  0.74220000  1
  C  C43  1  0.75550000  0.51670000  0.24800000  1
  C  C44  1  0.75950000  0.30140000  0.24990000  1
  C  C45  1  0.79970000  0.39720000  0.21720000  1
  C  C46  1  0.80730000  0.87160000  0.22100000  1
  C  C47  1  0.83450000  0.13790000  0.80860000  1
  C  C48  1  0.86230000  0.24210000  0.91190000  1
  C  C49  1  0.89280000  0.73290000  0.06870000  1
  C  C50  1  0.92290000  0.83490000  0.17360000  1
  C  C51  1  0.93530000  0.46030000  0.11950000  1
  C  C52  1  0.94150000  0.10160000  0.76520000  1
  C  C53  1  0.99900000  0.30550000  0.97140000  1
  O  O54  1  0.04010000  0.41270000  0.07443000  1
  O  O55  1  0.11350000  0.63740000  0.84726000  1
  O  O56  1  0.16330000  0.06930000  0.67549000  1
  O  O57  1  0.31450000  0.15530000  0.84112000  1
  O  O58  1  0.33050000  0.03700000  0.34347000  1
  O  O59  1  0.35640000  0.89640000  0.70468000  1
  O  O60  1  0.38630000  0.28080000  0.55116000  1
  O  O61  1  0.39320000  0.01050000  0.54354000  1
  O  O62  1  0.39450000  0.27360000  0.71093000  1
  O  O63  1  0.40600000  0.87880000  0.22402000  1
  O  O64  1  0.42130000  0.74690000  0.57231000  1
  O  O65  1  0.57870000  0.25310000  0.42769000  1
  O  O66  1  0.59400000  0.12120000  0.77598000  1
  O  O67  1  0.60550000  0.72640000  0.28907000  1
  O  O68  1  0.60680000  0.98950000  0.45646000  1
  O  O69  1  0.61370000  0.71920000  0.44884000  1
  O  O70  1  0.64360000  0.10360000  0.29532000  1
  O  O71  1  0.66950000  0.96300000  0.65653000  1
  O  O72  1  0.68550000  0.84470000  0.15888000  1
  O  O73  1  0.83670000  0.93070000  0.32451000  1
  O  O74  1  0.88650000  0.36260000  0.15274000  1
  O  O75  1  0.95990000  0.58730000  0.92557000  1
