# generated using pymatgen
data_CoH14C18(NO2)2
_symmetry_space_group_name_H-M   'P 1'
_cell_length_a   9.40440000
_cell_length_b   13.12570000
_cell_length_c   19.88996106
_cell_angle_alpha   109.26650323
_cell_angle_beta   102.46596111
_cell_angle_gamma   90.00000000
_symmetry_Int_Tables_number   1
_chemical_formula_structural   CoH14C18(NO2)2
_chemical_formula_sum   'Co4 H56 C72 N8 O16'
_cell_volume   2256.28976969
_cell_formula_units_Z   4
loop_
 _symmetry_equiv_pos_site_id
 _symmetry_equiv_pos_as_xyz
  1  'x, y, z'
loop_
 _atom_site_type_symbol
 _atom_site_label
 _atom_site_symmetry_multiplicity
 _atom_site_fract_x
 _atom_site_fract_y
 _atom_site_fract_z
 _atom_site_occupancy
  Co  Co0  1  0.82428000  0.41788000  0.27498000  1
  Co  Co1  1  0.67572000  0.14290000  0.72502000  1
  Co  Co2  1  0.32428000  0.85710000  0.27498000  1
  Co  Co3  1  0.17572000  0.58212000  0.72502000  1
  H  H4  1  0.98970000  0.45720000  0.43040000  1
  H  H5  1  0.98090000  0.05390000  0.95080000  1
  H  H6  1  0.97870000  0.04050000  0.16820000  1
  H  H7  1  0.94680000  0.04370000  0.56180000  1
  H  H8  1  0.94150000  0.30970000  0.58160000  1
  H  H9  1  0.94020000  0.81760000  0.60540000  1
  H  H10  1  0.92140000  0.19050000  0.25320000  1
  H  H11  1  0.91240000  0.19930000  0.02540000  1
  H  H12  1  0.87650000  0.86780000  0.32420000  1
  H  H13  1  0.85930000  0.56700000  0.74240000  1
  H  H14  1  0.84960000  0.34330000  0.11300000  1
  H  H15  1  0.84590000  0.29780000  0.45300000  1
  H  H16  1  0.83940000  0.69120000  0.47920000  1
  H  H17  1  0.77980000  0.51830000  0.49780000  1
  H  H18  1  0.72020000  0.02050000  0.50220000  1
  H  H19  1  0.66060000  0.21200000  0.52080000  1
  H  H20  1  0.65410000  0.84480000  0.54700000  1
  H  H21  1  0.65040000  0.23030000  0.88700000  1
  H  H22  1  0.64070000  0.82460000  0.25760000  1
  H  H23  1  0.62350000  0.54360000  0.67580000  1
  H  H24  1  0.58760000  0.17390000  0.97460000  1
  H  H25  1  0.57860000  0.93730000  0.74680000  1
  H  H26  1  0.55980000  0.21220000  0.39460000  1
  H  H27  1  0.55850000  0.72810000  0.41840000  1
  H  H28  1  0.55320000  0.48190000  0.43820000  1
  H  H29  1  0.52130000  0.87230000  0.83180000  1
  H  H30  1  0.51910000  0.10310000  0.04920000  1
  H  H31  1  0.51030000  0.02680000  0.56960000  1
  H  H32  1  0.48970000  0.97320000  0.43040000  1
  H  H33  1  0.48090000  0.89690000  0.95080000  1
  H  H34  1  0.47870000  0.12770000  0.16820000  1
  H  H35  1  0.44680000  0.51810000  0.56180000  1
  H  H36  1  0.44150000  0.27190000  0.58160000  1
  H  H37  1  0.44020000  0.78780000  0.60540000  1
  H  H38  1  0.42140000  0.06270000  0.25320000  1
  H  H39  1  0.41240000  0.82610000  0.02540000  1
  H  H40  1  0.37650000  0.45640000  0.32420000  1
  H  H41  1  0.35930000  0.17540000  0.74240000  1
  H  H42  1  0.34960000  0.76970000  0.11300000  1
  H  H43  1  0.34590000  0.15520000  0.45300000  1
  H  H44  1  0.33940000  0.78800000  0.47920000  1
  H  H45  1  0.27980000  0.97950000  0.49780000  1
  H  H46  1  0.22020000  0.48170000  0.50220000  1
  H  H47  1  0.16060000  0.30880000  0.52080000  1
  H  H48  1  0.15410000  0.70220000  0.54700000  1
  H  H49  1  0.15040000  0.65670000  0.88700000  1
  H  H50  1  0.14070000  0.43300000  0.25760000  1
  H  H51  1  0.12350000  0.13220000  0.67580000  1
  H  H52  1  0.08760000  0.80070000  0.97460000  1
  H  H53  1  0.07860000  0.80950000  0.74680000  1
  H  H54  1  0.05980000  0.18240000  0.39460000  1
  H  H55  1  0.05850000  0.69030000  0.41840000  1
  H  H56  1  0.05320000  0.95630000  0.43820000  1
  H  H57  1  0.02130000  0.95950000  0.83180000  1
  H  H58  1  0.01910000  0.94610000  0.04920000  1
  H  H59  1  0.01030000  0.54280000  0.56960000  1
  C  C60  1  0.99590000  0.00552000  0.03344000  1
  C  C61  1  0.97920000  0.97566000  0.46412000  1
  C  C62  1  0.95410000  0.10198000  0.08636000  1
  C  C63  1  0.95400000  0.10215000  0.15550000  1
  C  C64  1  0.93060000  0.54266000  0.59112000  1
  C  C65  1  0.91810000  0.19224000  0.20608000  1
  C  C66  1  0.91430000  0.19497000  0.07174000  1
  C  C67  1  0.87740000  0.28129000  0.12478000  1
  C  C68  1  0.85380000  0.27492000  0.58112000  1
  C  C69  1  0.85320000  0.85283000  0.60386000  1
  C  C70  1  0.84350000  0.95008000  0.66716000  1
  C  C71  1  0.84240000  0.55694000  0.69228000  1
  C  C72  1  0.83920000  0.25281000  0.64806000  1
  C  C73  1  0.82880000  0.94960000  0.42186000  1
  C  C74  1  0.79920000  0.89027000  0.34734000  1
  C  C75  1  0.79310000  0.52806000  0.54772000  1
  C  C76  1  0.75620000  0.26828000  0.45460000  1
  C  C77  1  0.75270000  0.72686000  0.47948000  1
  C  C78  1  0.74730000  0.24738000  0.52052000  1
  C  C79  1  0.74380000  0.81368000  0.54540000  1
  C  C80  1  0.70690000  0.98034000  0.45228000  1
  C  C81  1  0.70080000  0.54293000  0.65266000  1
  C  C82  1  0.67120000  0.52774000  0.57814000  1
  C  C83  1  0.66080000  0.60475000  0.35194000  1
  C  C84  1  0.65760000  0.86466000  0.30772000  1
  C  C85  1  0.65650000  0.28292000  0.33284000  1
  C  C86  1  0.64680000  0.24897000  0.39614000  1
  C  C87  1  0.64620000  0.69380000  0.41888000  1
  C  C88  1  0.62260000  0.15651000  0.87522000  1
  C  C89  1  0.58570000  0.12323000  0.92826000  1
  C  C90  1  0.58190000  0.98616000  0.79392000  1
  C  C91  1  0.56940000  0.95154000  0.40888000  1
  C  C92  1  0.54600000  0.94665000  0.84450000  1
  C  C93  1  0.54590000  0.01562000  0.91364000  1
  C  C94  1  0.52080000  0.51154000  0.53588000  1
  C  C95  1  0.50410000  0.97208000  0.96656000  1
  C  C96  1  0.49590000  0.02792000  0.03344000  1
  C  C97  1  0.47920000  0.48846000  0.46412000  1
  C  C98  1  0.45410000  0.98438000  0.08636000  1
  C  C99  1  0.45400000  0.05335000  0.15550000  1
  C  C100  1  0.43060000  0.04846000  0.59112000  1
  C  C101  1  0.41810000  0.01384000  0.20608000  1
  C  C102  1  0.41430000  0.87677000  0.07174000  1
  C  C103  1  0.37740000  0.84349000  0.12478000  1
  C  C104  1  0.35380000  0.30620000  0.58112000  1
  C  C105  1  0.35320000  0.75103000  0.60386000  1
  C  C106  1  0.34350000  0.71708000  0.66716000  1
  C  C107  1  0.34240000  0.13534000  0.69228000  1
  C  C108  1  0.33920000  0.39525000  0.64806000  1
  C  C109  1  0.32880000  0.47226000  0.42186000  1
  C  C110  1  0.29920000  0.45707000  0.34734000  1
  C  C111  1  0.29310000  0.01966000  0.54772000  1
  C  C112  1  0.25620000  0.18632000  0.45460000  1
  C  C113  1  0.25270000  0.75262000  0.47948000  1
  C  C114  1  0.24730000  0.27314000  0.52052000  1
  C  C115  1  0.24380000  0.73172000  0.54540000  1
  C  C116  1  0.20690000  0.47194000  0.45228000  1
  C  C117  1  0.20080000  0.10973000  0.65266000  1
  C  C118  1  0.17120000  0.05040000  0.57814000  1
  C  C119  1  0.16080000  0.74719000  0.35194000  1
  C  C120  1  0.15760000  0.44306000  0.30772000  1
  C  C121  1  0.15650000  0.04992000  0.33284000  1
  C  C122  1  0.14680000  0.14717000  0.39614000  1
  C  C123  1  0.14620000  0.72508000  0.41888000  1
  C  C124  1  0.12260000  0.71871000  0.87522000  1
  C  C125  1  0.08570000  0.80503000  0.92826000  1
  C  C126  1  0.08190000  0.80776000  0.79392000  1
  C  C127  1  0.06940000  0.45734000  0.40888000  1
  C  C128  1  0.04600000  0.89785000  0.84450000  1
  C  C129  1  0.04590000  0.89802000  0.91364000  1
  C  C130  1  0.02080000  0.02434000  0.53588000  1
  C  C131  1  0.00410000  0.99448000  0.96656000  1
  N  N132  1  0.95820000  0.55684000  0.66276000  1
  N  N133  1  0.87890000  0.28196000  0.19190000  1
  N  N134  1  0.62110000  0.09006000  0.80810000  1
  N  N135  1  0.54180000  0.89408000  0.33724000  1
  N  N136  1  0.45820000  0.10592000  0.66276000  1
  N  N137  1  0.37890000  0.90994000  0.19190000  1
  N  N138  1  0.12110000  0.71804000  0.80810000  1
  N  N139  1  0.04180000  0.44316000  0.33724000  1
  O  O140  1  0.95980000  0.98984000  0.71474000  1
  O  O141  1  0.93850000  0.29466000  0.70520000  1
  O  O142  1  0.77940000  0.32141000  0.33264000  1
  O  O143  1  0.76880000  0.54867000  0.35626000  1
  O  O144  1  0.73120000  0.19241000  0.64374000  1
  O  O145  1  0.72060000  0.98877000  0.66736000  1
  O  O146  1  0.56150000  0.58946000  0.29480000  1
  O  O147  1  0.54020000  0.27510000  0.28526000  1
  O  O148  1  0.45980000  0.72490000  0.71474000  1
  O  O149  1  0.43850000  0.41054000  0.70520000  1
  O  O150  1  0.27940000  0.01123000  0.33264000  1
  O  O151  1  0.26880000  0.80759000  0.35626000  1
  O  O152  1  0.23120000  0.45133000  0.64374000  1
  O  O153  1  0.22060000  0.67859000  0.66736000  1
  O  O154  1  0.06150000  0.70534000  0.29480000  1
  O  O155  1  0.04020000  0.01016000  0.28526000  1
