# generated using pymatgen
data_Cd3H28C30(NO6)2
_symmetry_space_group_name_H-M   'P 1'
_cell_length_a   8.94360000
_cell_length_b   9.45380000
_cell_length_c   19.00500000
_cell_angle_alpha   95.16600000
_cell_angle_beta   93.05000000
_cell_angle_gamma   117.53400000
_symmetry_Int_Tables_number   1
_chemical_formula_structural   Cd3H28C30(NO6)2
_chemical_formula_sum   'Cd3 H28 C30 N2 O12'
_cell_volume   1410.89680771
_cell_formula_units_Z   1
loop_
 _symmetry_equiv_pos_site_id
 _symmetry_equiv_pos_as_xyz
  1  'x, y, z'
loop_
 _atom_site_type_symbol
 _atom_site_label
 _atom_site_symmetry_multiplicity
 _atom_site_fract_x
 _atom_site_fract_y
 _atom_site_fract_z
 _atom_site_occupancy
  Cd  Cd0  1  0.00000000  0.00000000  0.00000000  1
  Cd  Cd1  1  0.01638000  0.10181000  0.17922000  1
  Cd  Cd2  1  0.98362000  0.89819000  0.82078000  1
  H  H3  1  0.03870000  0.56830000  0.08120000  1
  H  H4  1  0.16910000  0.61480000  0.14870000  1
  H  H5  1  0.16990000  0.01410000  0.31750000  1
  H  H6  1  0.20240000  0.42230000  0.27850000  1
  H  H7  1  0.21300000  0.80940000  0.03780000  1
  H  H8  1  0.23580000  0.54960000  0.00770000  1
  H  H9  1  0.33510000  0.12950000  0.42210000  1
  H  H10  1  0.37010000  0.54900000  0.38240000  1
  H  H11  1  0.44210000  0.89060000  0.16300000  1
  H  H12  1  0.45430000  0.62230000  0.13500000  1
  H  H13  1  0.47090000  0.99920000  0.10220000  1
  H  H14  1  0.49100000  0.18450000  0.97660000  1
  H  H15  1  0.49390000  0.35720000  0.51260000  1
  H  H16  1  0.49680000  0.58040000  0.05940000  1
  H  H17  1  0.50320000  0.41960000  0.94060000  1
  H  H18  1  0.50610000  0.64280000  0.48740000  1
  H  H19  1  0.50900000  0.81550000  0.02340000  1
  H  H20  1  0.52910000  0.00080000  0.89780000  1
  H  H21  1  0.54570000  0.37770000  0.86500000  1
  H  H22  1  0.55790000  0.10940000  0.83700000  1
  H  H23  1  0.62990000  0.45100000  0.61760000  1
  H  H24  1  0.66490000  0.87050000  0.57790000  1
  H  H25  1  0.76420000  0.45040000  0.99230000  1
  H  H26  1  0.78700000  0.19060000  0.96220000  1
  H  H27  1  0.79760000  0.57770000  0.72150000  1
  H  H28  1  0.83010000  0.98590000  0.68250000  1
  H  H29  1  0.83090000  0.38520000  0.85130000  1
  H  H30  1  0.96130000  0.43170000  0.91880000  1
  C  C31  1  0.15400000  0.88580000  0.13240000  1
  C  C32  1  0.15840000  0.62360000  0.09840000  1
  C  C33  1  0.17480000  0.36570000  0.06880000  1
  C  C34  1  0.21100000  0.12390000  0.33050000  1
  C  C35  1  0.23020000  0.36230000  0.30780000  1
  C  C36  1  0.23220000  0.80080000  0.08810000  1
  C  C37  1  0.24950000  0.54210000  0.05850000  1
  C  C38  1  0.29760000  0.09850000  0.89610000  1
  C  C39  1  0.30810000  0.19190000  0.39410000  1
  C  C40  1  0.32860000  0.43870000  0.37070000  1
  C  C41  1  0.36620000  0.35240000  0.41680000  1
  C  C42  1  0.42400000  0.88870000  0.11210000  1
  C  C43  1  0.43920000  0.63090000  0.08490000  1
  C  C44  1  0.46970000  0.42390000  0.48630000  1
  C  C45  1  0.48160000  0.19230000  0.92560000  1
  C  C46  1  0.51840000  0.80770000  0.07440000  1
  C  C47  1  0.53030000  0.57610000  0.51370000  1
  C  C48  1  0.56080000  0.36910000  0.91510000  1
  C  C49  1  0.57600000  0.11130000  0.88790000  1
  C  C50  1  0.63380000  0.64760000  0.58320000  1
  C  C51  1  0.67140000  0.56130000  0.62930000  1
  C  C52  1  0.69190000  0.80810000  0.60590000  1
  C  C53  1  0.70240000  0.90150000  0.10390000  1
  C  C54  1  0.75050000  0.45790000  0.94150000  1
  C  C55  1  0.76780000  0.19920000  0.91190000  1
  C  C56  1  0.76980000  0.63770000  0.69220000  1
  C  C57  1  0.78900000  0.87610000  0.66950000  1
  C  C58  1  0.82520000  0.63430000  0.93120000  1
  C  C59  1  0.84160000  0.37640000  0.90160000  1
  C  C60  1  0.84600000  0.11420000  0.86760000  1
  N  N61  1  0.17180000  0.20490000  0.28620000  1
  N  N62  1  0.82820000  0.79510000  0.71380000  1
  O  O63  1  0.11580000  0.85640000  0.19210000  1
  O  O64  1  0.13780000  0.26740000  0.01373000  1
  O  O65  1  0.13830000  0.99760000  0.10409000  1
  O  O66  1  0.15640000  0.33290000  0.13065000  1
  O  O67  1  0.19790000  0.98650000  0.92861000  1
  O  O68  1  0.24990000  0.12290000  0.83707000  1
  O  O69  1  0.75010000  0.87710000  0.16293000  1
  O  O70  1  0.80210000  0.01350000  0.07139000  1
  O  O71  1  0.84360000  0.66710000  0.86935000  1
  O  O72  1  0.86170000  0.00240000  0.89591000  1
  O  O73  1  0.86220000  0.73260000  0.98627000  1
  O  O74  1  0.88420000  0.14360000  0.80790000  1
