# generated using pymatgen
data_CoH28C46S4(N5O4)2
_symmetry_space_group_name_H-M   'P 1'
_cell_length_a   14.53711014
_cell_length_b   14.53711014
_cell_length_c   18.32803877
_cell_angle_alpha   108.37825923
_cell_angle_beta   108.37825923
_cell_angle_gamma   101.82847546
_symmetry_Int_Tables_number   1
_chemical_formula_structural   CoH28C46S4(N5O4)2
_chemical_formula_sum   'Co2 H56 C92 S8 N20 O16'
_cell_volume   3282.91538090
_cell_formula_units_Z   2
loop_
 _symmetry_equiv_pos_site_id
 _symmetry_equiv_pos_as_xyz
  1  'x, y, z'
loop_
 _atom_site_type_symbol
 _atom_site_label
 _atom_site_symmetry_multiplicity
 _atom_site_fract_x
 _atom_site_fract_y
 _atom_site_fract_z
 _atom_site_occupancy
  C  C0  1  0.92957000  0.54585000  0.47662000  1
  C  C1  1  0.56923000  0.45295000  0.02338000  1
  C  C2  1  0.83868000  0.57928000  0.45476000  1
  C  C3  1  0.62452000  0.38392000  0.04524000  1
  C  C4  1  0.20060000  0.95060000  0.25000000  1
  C  C5  1  0.90852000  0.46914000  0.50486000  1
  C  C6  1  0.46428000  0.40366000  0.99514000  1
  C  C7  1  0.39144000  0.44780000  0.97064000  1
  C  C8  1  0.97716000  0.42080000  0.52936000  1
  C  C9  1  0.45025000  0.00361000  0.58806000  1
  C  C10  1  0.91555000  0.86219000  0.91194000  1
  C  C11  1  0.83849000  0.86771000  0.84900000  1
  C  C12  1  0.51871000  0.98949000  0.65100000  1
  C  C13  1  0.65750000  0.77236000  0.59006000  1
  C  C14  1  0.68230000  0.06744000  0.90994000  1
  C  C15  1  0.66375000  0.69875000  0.52490000  1
  C  C16  1  0.67385000  0.13885000  0.97510000  1
  C  C17  1  0.29076000  0.93156000  0.45212000  1
  C  C18  1  0.97944000  0.83864000  0.04788000  1
  C  C19  1  0.36901000  0.92079000  0.52260000  1
  C  C20  1  0.89819000  0.84641000  0.97740000  1
  C  C21  1  0.80366000  0.45402000  0.50288000  1
  C  C22  1  0.45114000  0.30078000  0.99712000  1
  C  C23  1  0.04598000  0.69634000  0.99712000  1
  C  C24  1  0.19922000  0.04886000  0.50288000  1
  C  C25  1  0.57921000  0.13099000  0.97740000  1
  C  C26  1  0.65359000  0.60181000  0.52260000  1
  C  C27  1  0.56844000  0.20924000  0.04788000  1
  C  C28  1  0.66136000  0.52056000  0.45212000  1
  C  C29  1  0.80125000  0.83625000  0.97510000  1
  C  C30  1  0.36115000  0.82615000  0.52490000  1
  C  C31  1  0.72764000  0.84250000  0.90994000  1
  C  C32  1  0.43256000  0.81770000  0.59006000  1
  C  C33  1  0.63229000  0.66151000  0.65100000  1
  C  C34  1  0.51051000  0.98129000  0.84900000  1
  C  C35  1  0.49639000  0.04975000  0.91194000  1
  C  C36  1  0.63781000  0.58445000  0.58806000  1
  C  C37  1  0.05220000  0.10856000  0.52936000  1
  C  C38  1  0.07920000  0.52284000  0.97064000  1
  C  C39  1  0.03086000  0.59148000  0.99514000  1
  C  C40  1  0.09634000  0.03572000  0.50486000  1
  C  C41  1  0.54940000  0.29940000  0.25000000  1
  C  C42  1  0.92072000  0.66132000  0.04524000  1
  C  C43  1  0.11608000  0.87548000  0.45476000  1
  C  C44  1  0.95415000  0.57043000  0.02338000  1
  C  C45  1  0.04705000  0.93077000  0.47662000  1
  C  C46  1  0.95295000  0.06923000  0.52338000  1
  C  C47  1  0.04585000  0.42957000  0.97662000  1
  C  C48  1  0.88392000  0.12452000  0.54524000  1
  C  C49  1  0.07928000  0.33868000  0.95476000  1
  C  C50  1  0.45060000  0.70060000  0.75000000  1
  C  C51  1  0.90366000  0.96428000  0.49514000  1
  C  C52  1  0.96914000  0.40852000  0.00486000  1
  C  C53  1  0.92080000  0.47716000  0.02936000  1
  C  C54  1  0.94780000  0.89144000  0.47064000  1
  C  C55  1  0.36219000  0.41555000  0.41194000  1
  C  C56  1  0.50361000  0.95025000  0.08806000  1
  C  C57  1  0.48949000  0.01871000  0.15100000  1
  C  C58  1  0.36771000  0.33849000  0.34900000  1
  C  C59  1  0.56744000  0.18230000  0.40994000  1
  C  C60  1  0.27236000  0.15750000  0.09006000  1
  C  C61  1  0.63885000  0.17385000  0.47510000  1
  C  C62  1  0.19875000  0.16375000  0.02490000  1
  C  C63  1  0.33864000  0.47944000  0.54788000  1
  C  C64  1  0.43156000  0.79076000  0.95212000  1
  C  C65  1  0.34641000  0.39819000  0.47740000  1
  C  C66  1  0.42079000  0.86901000  0.02260000  1
  C  C67  1  0.80078000  0.95114000  0.49712000  1
  C  C68  1  0.95402000  0.30366000  0.00288000  1
  C  C69  1  0.54886000  0.69922000  0.00288000  1
  C  C70  1  0.19634000  0.54598000  0.49712000  1
  C  C71  1  0.10181000  0.15359000  0.02260000  1
  C  C72  1  0.63099000  0.07921000  0.47740000  1
  C  C73  1  0.02056000  0.16136000  0.95212000  1
  C  C74  1  0.70924000  0.06844000  0.54788000  1
  C  C75  1  0.32615000  0.86115000  0.02490000  1
  C  C76  1  0.33625000  0.30125000  0.47510000  1
  C  C77  1  0.31770000  0.93256000  0.09006000  1
  C  C78  1  0.34250000  0.22764000  0.40994000  1
  C  C79  1  0.48129000  0.01051000  0.34900000  1
  C  C80  1  0.16151000  0.13229000  0.15100000  1
  C  C81  1  0.08445000  0.13781000  0.08806000  1
  C  C82  1  0.54975000  0.99639000  0.41194000  1
  C  C83  1  0.02284000  0.57920000  0.47064000  1
  C  C84  1  0.60856000  0.55220000  0.02936000  1
  C  C85  1  0.53572000  0.59634000  0.00486000  1
  C  C86  1  0.09148000  0.53086000  0.49514000  1
  C  C87  1  0.79940000  0.04940000  0.75000000  1
  C  C88  1  0.37548000  0.61608000  0.95476000  1
  C  C89  1  0.16132000  0.42072000  0.54524000  1
  C  C90  1  0.43077000  0.54705000  0.97662000  1
  C  C91  1  0.07043000  0.45415000  0.52338000  1
  Co  Co92  1  0.62500000  0.87500000  0.75000000  1
  Co  Co93  1  0.37500000  0.12500000  0.25000000  1
  H  H94  1  0.45860000  0.06940000  0.58940000  1
  H  H95  1  0.98000000  0.86920000  0.91060000  1
  H  H96  1  0.85240000  0.87880000  0.80580000  1
  H  H97  1  0.57300000  0.04660000  0.69420000  1
  H  H98  1  0.66420000  0.83720000  0.58980000  1
  H  H99  1  0.74740000  0.07440000  0.91020000  1
  H  H100  1  0.67500000  0.71460000  0.48240000  1
  H  H101  1  0.73220000  0.19260000  0.01760000  1
  H  H102  1  0.32410000  0.98750000  0.44100000  1
  H  H103  1  0.04650000  0.88310000  0.05900000  1
  H  H104  1  0.32130000  0.41390000  0.95160000  1
  H  H105  1  0.96230000  0.36970000  0.54840000  1
  H  H106  1  0.63130000  0.23570000  0.09860000  1
  H  H107  1  0.63710000  0.53270000  0.40140000  1
  H  H108  1  0.26430000  0.86870000  0.40140000  1
  H  H109  1  0.96730000  0.86290000  0.09860000  1
  H  H110  1  0.08610000  0.17870000  0.54840000  1
  H  H111  1  0.13030000  0.53770000  0.95160000  1
  H  H112  1  0.51250000  0.17590000  0.05900000  1
  H  H113  1  0.61690000  0.45350000  0.44100000  1
  H  H114  1  0.78540000  0.82500000  0.01760000  1
  H  H115  1  0.30740000  0.76780000  0.48240000  1
  H  H116  1  0.66280000  0.83580000  0.91020000  1
  H  H117  1  0.42560000  0.75260000  0.58980000  1
  H  H118  1  0.62120000  0.64760000  0.69420000  1
  H  H119  1  0.45340000  0.92700000  0.80580000  1
  H  H120  1  0.43060000  0.04140000  0.91060000  1
  H  H121  1  0.63080000  0.52000000  0.58940000  1
  H  H122  1  0.36920000  0.48000000  0.41060000  1
  H  H123  1  0.56940000  0.95860000  0.08940000  1
  H  H124  1  0.54660000  0.07300000  0.19420000  1
  H  H125  1  0.37880000  0.35240000  0.30580000  1
  H  H126  1  0.57440000  0.24740000  0.41020000  1
  H  H127  1  0.33720000  0.16420000  0.08980000  1
  H  H128  1  0.69260000  0.23220000  0.51760000  1
  H  H129  1  0.21460000  0.17500000  0.98240000  1
  H  H130  1  0.38310000  0.54650000  0.55900000  1
  H  H131  1  0.48750000  0.82410000  0.94100000  1
  H  H132  1  0.86970000  0.46230000  0.04840000  1
  H  H133  1  0.91390000  0.82130000  0.45160000  1
  H  H134  1  0.03270000  0.13710000  0.90140000  1
  H  H135  1  0.73570000  0.13130000  0.59860000  1
  H  H136  1  0.36290000  0.46730000  0.59860000  1
  H  H137  1  0.36870000  0.76430000  0.90140000  1
  H  H138  1  0.03770000  0.63030000  0.45160000  1
  H  H139  1  0.67870000  0.58610000  0.04840000  1
  H  H140  1  0.95350000  0.11690000  0.94100000  1
  H  H141  1  0.67590000  0.01250000  0.55900000  1
  H  H142  1  0.26780000  0.80740000  0.98240000  1
  H  H143  1  0.32500000  0.28540000  0.51760000  1
  H  H144  1  0.25260000  0.92560000  0.08980000  1
  H  H145  1  0.33580000  0.16280000  0.41020000  1
  H  H146  1  0.42700000  0.95340000  0.30580000  1
  H  H147  1  0.14760000  0.12120000  0.19420000  1
  H  H148  1  0.02000000  0.13080000  0.08940000  1
  H  H149  1  0.54140000  0.93060000  0.41060000  1
  N  N150  1  0.73870000  0.98870000  0.75000000  1
  N  N151  1  0.54812000  0.29486000  0.02818000  1
  N  N152  1  0.76668000  0.51994000  0.47182000  1
  N  N153  1  0.74382000  0.85770000  0.84694000  1
  N  N154  1  0.51076000  0.89688000  0.65306000  1
  N  N155  1  0.64230000  0.75618000  0.65306000  1
  N  N156  1  0.60312000  0.98924000  0.84694000  1
  N  N157  1  0.20514000  0.95188000  0.47182000  1
  N  N158  1  0.98006000  0.73332000  0.02818000  1
  N  N159  1  0.51130000  0.76130000  0.75000000  1
  N  N160  1  0.48870000  0.23870000  0.25000000  1
  N  N161  1  0.01994000  0.26668000  0.97182000  1
  N  N162  1  0.79486000  0.04812000  0.52818000  1
  N  N163  1  0.39688000  0.01076000  0.15306000  1
  N  N164  1  0.35770000  0.24382000  0.34694000  1
  N  N165  1  0.48924000  0.10312000  0.34694000  1
  N  N166  1  0.25618000  0.14230000  0.15306000  1
  N  N167  1  0.23332000  0.48006000  0.52818000  1
  N  N168  1  0.45188000  0.70514000  0.97182000  1
  N  N169  1  0.26130000  0.01130000  0.25000000  1
  O  O170  1  0.17439000  0.35621000  0.57150000  1
  O  O171  1  0.28471000  0.60289000  0.92850000  1
  O  O172  1  0.10325000  0.74291000  0.97492000  1
  O  O173  1  0.26799000  0.12833000  0.52508000  1
  O  O174  1  0.75709000  0.39675000  0.52508000  1
  O  O175  1  0.37167000  0.23201000  0.97492000  1
  O  O176  1  0.14379000  0.32561000  0.92850000  1
  O  O177  1  0.89711000  0.21529000  0.57150000  1
  O  O178  1  0.10289000  0.78471000  0.42850000  1
  O  O179  1  0.85621000  0.67439000  0.07150000  1
  O  O180  1  0.62833000  0.76799000  0.02508000  1
  O  O181  1  0.24291000  0.60325000  0.47492000  1
  O  O182  1  0.73201000  0.87167000  0.47492000  1
  O  O183  1  0.89675000  0.25709000  0.02508000  1
  O  O184  1  0.71529000  0.39711000  0.07150000  1
  O  O185  1  0.82561000  0.64379000  0.42850000  1
  S  S186  1  0.66948000  0.36328000  0.26612000  1
  S  S187  1  0.59716000  0.40336000  0.23388000  1
  S  S188  1  0.13672000  0.83052000  0.23388000  1
  S  S189  1  0.09664000  0.90284000  0.26612000  1
  S  S190  1  0.90336000  0.09716000  0.73388000  1
  S  S191  1  0.86328000  0.16948000  0.76612000  1
  S  S192  1  0.40284000  0.59664000  0.76612000  1
  S  S193  1  0.33052000  0.63672000  0.73388000  1
