# generated using pymatgen
data_Cd3H42C50N9O6F
_symmetry_space_group_name_H-M   'P 1'
_cell_length_a   12.60700000
_cell_length_b   12.69024461
_cell_length_c   23.17900000
_cell_angle_alpha   101.91364907
_cell_angle_beta   90.00000000
_cell_angle_gamma   119.78324200
_symmetry_Int_Tables_number   1
_chemical_formula_structural   Cd3H42C50N9O6F
_chemical_formula_sum   'Cd6 H84 C100 N18 O12 F2'
_cell_volume   3126.11654181
_cell_formula_units_Z   2
loop_
 _symmetry_equiv_pos_site_id
 _symmetry_equiv_pos_as_xyz
  1  'x, y, z'
loop_
 _atom_site_type_symbol
 _atom_site_label
 _atom_site_symmetry_multiplicity
 _atom_site_fract_x
 _atom_site_fract_y
 _atom_site_fract_z
 _atom_site_occupancy
  C  C0  1  0.62940000  1.00000000  0.75000000  1
  C  C1  1  0.50990000  0.00000000  0.75000000  1
  C  C2  1  0.49010000  0.00000000  0.25000000  1
  C  C3  1  0.37060000  0.00000000  0.25000000  1
  C  C4  1  0.88137000  0.98434000  0.44546000  1
  C  C5  1  0.10297000  0.98434000  0.94546000  1
  C  C6  1  0.79271000  0.96502000  0.92899000  1
  C  C7  1  0.17231000  0.96502000  0.42899000  1
  C  C8  1  0.88531000  0.96422000  0.38527000  1
  C  C9  1  0.07891000  0.96422000  0.88527000  1
  C  C10  1  0.77585000  0.94050000  0.86828000  1
  C  C11  1  0.16465000  0.94050000  0.36828000  1
  C  C12  1  0.80692000  0.89904000  0.02159000  1
  C  C13  1  0.09212000  0.89904000  0.52159000  1
  C  C14  1  0.60427000  0.89774000  0.22458000  1
  C  C15  1  0.29347000  0.89774000  0.72458000  1
  C  C16  1  0.49327000  0.89374000  0.22327000  1
  C  C17  1  0.40047000  0.89374000  0.72327000  1
  C  C18  1  0.78242000  0.87424000  0.95655000  1
  C  C19  1  0.09182000  0.87424000  0.45655000  1
  C  C20  1  0.77335000  0.83610000  0.11299000  1
  C  C21  1  0.06275000  0.83610000  0.61299000  1
  C  C22  1  0.74392000  0.80784000  0.05262000  1
  C  C23  1  0.06392000  0.80784000  0.55262000  1
  C  C24  1  0.75114000  0.75868000  0.91980000  1
  C  C25  1  0.00754000  0.75868000  0.41980000  1
  C  C26  1  0.73704000  0.74248000  0.85929000  1
  C  C27  1  0.00544000  0.74248000  0.35929000  1
  C  C28  1  0.59203000  0.74206000  0.59978000  1
  C  C29  1  0.15003000  0.74206000  0.09978000  1
  C  C30  1  0.55893000  0.70306000  0.53921000  1
  C  C31  1  0.14413000  0.70306000  0.03921000  1
  C  C32  1  0.78116000  0.70012000  0.24091000  1
  C  C33  1  0.91896000  0.70012000  0.74091000  1
  C  C34  1  0.74430000  0.69520000  0.59113000  1
  C  C35  1  0.95090000  0.69520000  0.09113000  1
  C  C36  1  0.62322000  0.66044000  0.50249000  1
  C  C37  1  0.03722000  0.66044000  0.00249000  1
  C  C38  1  0.71670000  0.65620000  0.53032000  1
  C  C39  1  0.93950000  0.65620000  0.03032000  1
  C  C40  1  0.45656000  0.63252000  0.76114000  1
  C  C41  1  0.17596000  0.63252000  0.26114000  1
  C  C42  1  0.59230000  0.62020000  0.43604000  1
  C  C43  1  0.02790000  0.62020000  0.93604000  1
  C  C44  1  0.57511000  0.59742000  0.27845000  1
  C  C45  1  0.02231000  0.59742000  0.77845000  1
  C  C46  1  0.66601000  0.58642000  0.24995000  1
  C  C47  1  0.92041000  0.58642000  0.74995000  1
  C  C48  1  0.35051000  0.53162000  0.77009000  1
  C  C49  1  0.18111000  0.53162000  0.27009000  1
  C  C50  1  0.52807000  0.50934000  0.71371000  1
  C  C51  1  0.98127000  0.50934000  0.21371000  1
  C  C52  1  0.47193000  0.49066000  0.28629000  1
  C  C53  1  0.01873000  0.49066000  0.78629000  1
  C  C54  1  0.64949000  0.46838000  0.22991000  1
  C  C55  1  0.81889000  0.46838000  0.72991000  1
  C  C56  1  0.33399000  0.41358000  0.75005000  1
  C  C57  1  0.07959000  0.41358000  0.25005000  1
  C  C58  1  0.42489000  0.40258000  0.72155000  1
  C  C59  1  0.97769000  0.40258000  0.22155000  1
  C  C60  1  0.40770000  0.37980000  0.56396000  1
  C  C61  1  0.97210000  0.37980000  0.06396000  1
  C  C62  1  0.54344000  0.36748000  0.23886000  1
  C  C63  1  0.82404000  0.36748000  0.73886000  1
  C  C64  1  0.28330000  0.34380000  0.46968000  1
  C  C65  1  0.06050000  0.34380000  0.96968000  1
  C  C66  1  0.37678000  0.33956000  0.49751000  1
  C  C67  1  0.96278000  0.33956000  0.99751000  1
  C  C68  1  0.25570000  0.30480000  0.40887000  1
  C  C69  1  0.04910000  0.30480000  0.90887000  1
  C  C70  1  0.21884000  0.29988000  0.75909000  1
  C  C71  1  0.08104000  0.29988000  0.25909000  1
  C  C72  1  0.44107000  0.29694000  0.46079000  1
  C  C73  1  0.85587000  0.29694000  0.96079000  1
  C  C74  1  0.40797000  0.25794000  0.40022000  1
  C  C75  1  0.84997000  0.25794000  0.90022000  1
  C  C76  1  0.26296000  0.25752000  0.14071000  1
  C  C77  1  0.99456000  0.25752000  0.64071000  1
  C  C78  1  0.24886000  0.24132000  0.08020000  1
  C  C79  1  0.99246000  0.24132000  0.58020000  1
  C  C80  1  0.25608000  0.19216000  0.94738000  1
  C  C81  1  0.93608000  0.19216000  0.44738000  1
  C  C82  1  0.22665000  0.16390000  0.88701000  1
  C  C83  1  0.93725000  0.16390000  0.38701000  1
  C  C84  1  0.21758000  0.12576000  0.04345000  1
  C  C85  1  0.90818000  0.12576000  0.54345000  1
  C  C86  1  0.50673000  0.10626000  0.77673000  1
  C  C87  1  0.59953000  0.10626000  0.27673000  1
  C  C88  1  0.39573000  0.10226000  0.77542000  1
  C  C89  1  0.70653000  0.10226000  0.27542000  1
  C  C90  1  0.19308000  0.10096000  0.97841000  1
  C  C91  1  0.90788000  0.10096000  0.47841000  1
  C  C92  1  0.22415000  0.05950000  0.13172000  1
  C  C93  1  0.83535000  0.05950000  0.63172000  1
  C  C94  1  0.11469000  0.03578000  0.61473000  1
  C  C95  1  0.92109000  0.03578000  0.11473000  1
  C  C96  1  0.20729000  0.03498000  0.07101000  1
  C  C97  1  0.82769000  0.03498000  0.57101000  1
  C  C98  1  0.11863000  0.01566000  0.55454000  1
  C  C99  1  0.89703000  0.01566000  0.05454000  1
  Cd  Cd100  1  0.90081000  1.00000000  0.25000000  1
  Cd  Cd101  1  0.09919000  0.00000000  0.75000000  1
  Cd  Cd102  1  0.73473000  0.80496000  0.72940000  1
  Cd  Cd103  1  0.07023000  0.80496000  0.22940000  1
  Cd  Cd104  1  0.26527500  0.19505000  0.27060000  1
  Cd  Cd105  1  0.92977500  0.19505000  0.77060000  1
  F  F106  1  0.91756000  1.00000000  0.75000000  1
  F  F107  1  0.08244000  1.00000000  0.25000000  1
  H  H108  1  0.77950000  0.99700000  0.64920000  1
  H  H109  1  0.21750000  0.99700000  0.14920000  1
  H  H110  1  0.76820000  0.95700000  0.54830000  1
  H  H111  1  0.18880000  0.95700000  0.04830000  1
  H  H112  1  0.86080000  0.91980000  0.46420000  1
  H  H113  1  0.05900000  0.91980000  0.96420000  1
  H  H114  1  0.86740000  0.88520000  0.36430000  1
  H  H115  1  0.01780000  0.88520000  0.86430000  1
  H  H116  1  0.60520000  0.82540000  0.20680000  1
  H  H117  1  0.22020000  0.82540000  0.70680000  1
  H  H118  1  0.42150000  0.82080000  0.20470000  1
  H  H119  1  0.39930000  0.82080000  0.70470000  1
  H  H120  1  0.72940000  0.77380000  0.13300000  1
  H  H121  1  0.04440000  0.77380000  0.63300000  1
  H  H122  1  0.54730000  0.77020000  0.62340000  1
  H  H123  1  0.22290000  0.77020000  0.12340000  1
  H  H124  1  0.68220000  0.72820000  0.03280000  1
  H  H125  1  0.04600000  0.72820000  0.53280000  1
  H  H126  1  0.46730000  0.71180000  0.77520000  1
  H  H127  1  0.24450000  0.71180000  0.27520000  1
  H  H128  1  0.49300000  0.70540000  0.52290000  1
  H  H129  1  0.21240000  0.70540000  0.02290000  1
  H  H130  1  0.73980000  0.69320000  0.93610000  1
  H  H131  1  0.95340000  0.69320000  0.43610000  1
  H  H132  1  0.80690000  0.68920000  0.60860000  1
  H  H133  1  0.88230000  0.68920000  0.10860000  1
  H  H134  1  0.64570000  0.68800000  0.41880000  1
  H  H135  1  0.04230000  0.68800000  0.91880000  1
  H  H136  1  0.58290000  0.67540000  0.29220000  1
  H  H137  1  0.09250000  0.67540000  0.79220000  1
  H  H138  1  0.71700000  0.66500000  0.83540000  1
  H  H139  1  0.94800000  0.66500000  0.33540000  1
  H  H140  1  0.76170000  0.62660000  0.50790000  1
  H  H141  1  0.86490000  0.62660000  0.00790000  1
  H  H142  1  0.50830000  0.59660000  0.42590000  1
  H  H143  1  0.08830000  0.59660000  0.92590000  1
  H  H144  1  0.60300000  0.55000000  0.42100000  1
  H  H145  1  0.94700000  0.55000000  0.92100000  1
  H  H146  1  0.29070000  0.54240000  0.78930000  1
  H  H147  1  0.25170000  0.54240000  0.28930000  1
  H  H148  1  0.58850000  0.50100000  0.69370000  1
  H  H149  1  0.91250000  0.50100000  0.19370000  1
  H  H150  1  0.41150000  0.49900000  0.30630000  1
  H  H151  1  0.08750000  0.49900000  0.80630000  1
  H  H152  1  0.70930000  0.45760000  0.21070000  1
  H  H153  1  0.74830000  0.45760000  0.71070000  1
  H  H154  1  0.39700000  0.45000000  0.57900000  1
  H  H155  1  0.05300000  0.45000000  0.07900000  1
  H  H156  1  0.49170000  0.40340000  0.57410000  1
  H  H157  1  0.91170000  0.40340000  0.07410000  1
  H  H158  1  0.23830000  0.37340000  0.49210000  1
  H  H159  1  0.13510000  0.37340000  0.99210000  1
  H  H160  1  0.28300000  0.33500000  0.16460000  1
  H  H161  1  0.05200000  0.33500000  0.66460000  1
  H  H162  1  0.41710000  0.32460000  0.70780000  1
  H  H163  1  0.90750000  0.32460000  0.20780000  1
  H  H164  1  0.35430000  0.31200000  0.58120000  1
  H  H165  1  0.95770000  0.31200000  0.08120000  1
  H  H166  1  0.19310000  0.31080000  0.39140000  1
  H  H167  1  0.11770000  0.31080000  0.89140000  1
  H  H168  1  0.26020000  0.30680000  0.06390000  1
  H  H169  1  0.04660000  0.30680000  0.56390000  1
  H  H170  1  0.50700000  0.29460000  0.47710000  1
  H  H171  1  0.78760000  0.29460000  0.97710000  1
  H  H172  1  0.53270000  0.28820000  0.22480000  1
  H  H173  1  0.75550000  0.28820000  0.72480000  1
  H  H174  1  0.31780000  0.27180000  0.96720000  1
  H  H175  1  0.95400000  0.27180000  0.46720000  1
  H  H176  1  0.45270000  0.22980000  0.37660000  1
  H  H177  1  0.77710000  0.22980000  0.87660000  1
  H  H178  1  0.27060000  0.22620000  0.86700000  1
  H  H179  1  0.95560000  0.22620000  0.36700000  1
  H  H180  1  0.57850000  0.17920000  0.79530000  1
  H  H181  1  0.60070000  0.17920000  0.29530000  1
  H  H182  1  0.39480000  0.17460000  0.79320000  1
  H  H183  1  0.77980000  0.17460000  0.29320000  1
  H  H184  1  0.13260000  0.11480000  0.63570000  1
  H  H185  1  0.98220000  0.11480000  0.13570000  1
  H  H186  1  0.13920000  0.08020000  0.53580000  1
  H  H187  1  0.94100000  0.08020000  0.03580000  1
  H  H188  1  0.23180000  0.04300000  0.45170000  1
  H  H189  1  0.81120000  0.04300000  0.95170000  1
  H  H190  1  0.22050000  0.00300000  0.35080000  1
  H  H191  1  0.78250000  0.00300000  0.85080000  1
  N  N192  1  0.71100000  0.00000000  0.25000000  1
  N  N193  1  0.28900000  1.00000000  0.75000000  1
  N  N194  1  0.86143000  0.94794000  0.14486000  1
  N  N195  1  0.08651000  0.94794000  0.64486000  1
  N  N196  1  0.75029000  0.83118000  0.83284000  1
  N  N197  1  0.08089000  0.83118000  0.33284000  1
  N  N198  1  0.68600000  0.74108000  0.62614000  1
  N  N199  1  0.05508000  0.74108000  0.12614000  1
  N  N200  1  0.54510000  0.62294000  0.73330000  1
  N  N201  1  0.07784000  0.62294000  0.23330000  1
  N  N202  1  0.45490000  0.37706000  0.26670000  1
  N  N203  1  0.92216000  0.37706000  0.76670000  1
  N  N204  1  0.31400000  0.25892000  0.37386000  1
  N  N205  1  0.94492000  0.25892000  0.87386000  1
  N  N206  1  0.24971000  0.16882000  0.16716000  1
  N  N207  1  0.91911000  0.16882000  0.66716000  1
  N  N208  1  0.13857000  0.05206000  0.85514000  1
  N  N209  1  0.91349000  0.05206000  0.35514000  1
  O  O210  1  0.62310000  0.89834000  0.72875000  1
  O  O211  1  0.27524000  0.89834000  0.22875000  1
  O  O212  1  0.78308000  0.80112000  0.25591000  1
  O  O213  1  0.01804000  0.80112000  0.75591000  1
  O  O214  1  0.82083000  0.68482000  0.71931000  1
  O  O215  1  0.86399000  0.68482000  0.21931000  1
  O  O216  1  0.17917000  0.31518000  0.28069000  1
  O  O217  1  0.13601000  0.31518000  0.78069000  1
  O  O218  1  0.21692000  0.19888000  0.74409000  1
  O  O219  1  0.98196000  0.19888000  0.24409000  1
  O  O220  1  0.37690000  0.10166000  0.27125000  1
  O  O221  1  0.72476000  0.10166000  0.77125000  1
