# generated using pymatgen
data_Cu9H32C60S2(N9O17)2
_symmetry_space_group_name_H-M   'P 1'
_cell_length_a   22.40064398
_cell_length_b   22.40040000
_cell_length_c   22.40040000
_cell_angle_alpha   109.47100000
_cell_angle_beta   109.47144127
_cell_angle_gamma   109.47144127
_symmetry_Int_Tables_number   1
_chemical_formula_structural   Cu9H32C60S2(N9O17)2
_chemical_formula_sum   'Cu18 H64 C120 S4 N36 O68'
_cell_volume   8652.64682380
_cell_formula_units_Z   2
loop_
 _symmetry_equiv_pos_site_id
 _symmetry_equiv_pos_as_xyz
  1  'x, y, z'
loop_
 _atom_site_type_symbol
 _atom_site_label
 _atom_site_symmetry_multiplicity
 _atom_site_fract_x
 _atom_site_fract_y
 _atom_site_fract_z
 _atom_site_occupancy
  Cu  Cu0  1  0.55187000  1.00000000  0.55187000  1
  Cu  Cu1  1  0.09184000  0.59747000  0.09184000  1
  Cu  Cu2  1  0.49437000  0.40253000  0.49437000  1
  Cu  Cu3  1  0.40253000  0.49437000  0.49437000  1
  Cu  Cu4  1  0.90816000  0.50563000  1.00000000  1
  Cu  Cu5  1  0.50563000  1.00000000  0.90816000  1
  Cu  Cu6  1  0.55187000  0.55187000  1.00000000  1
  Cu  Cu7  1  0.00000000  0.44813000  0.44813000  1
  Cu  Cu8  1  0.50563000  0.90816000  1.00000000  1
  Cu  Cu9  1  0.59747000  0.09184000  0.09184000  1
  Cu  Cu10  1  0.09184000  0.09184000  0.59747000  1
  Cu  Cu11  1  0.00000000  0.90816000  0.50563000  1
  Cu  Cu12  1  0.44813000  0.44813000  1.00000000  1
  Cu  Cu13  1  0.00000000  0.55187000  0.55187000  1
  Cu  Cu14  1  0.90816000  1.00000000  0.50563000  1
  Cu  Cu15  1  0.49437000  0.49437000  0.40253000  1
  Cu  Cu16  1  1.00000000  0.50563000  0.90816000  1
  Cu  Cu17  1  0.44813000  1.00000000  0.44813000  1
  H  H18  1  0.52600000  0.52600000  0.52600000  1
  H  H19  1  0.27760000  0.57520000  0.27760000  1
  H  H20  1  0.45480000  0.76340000  0.45480000  1
  H  H21  1  0.29970000  0.76960000  0.29970000  1
  H  H22  1  0.00000000  0.47400000  1.00000000  1
  H  H23  1  0.69140000  0.23660000  0.69140000  1
  H  H24  1  0.53010000  0.23040000  0.53010000  1
  H  H25  1  0.70240000  0.42480000  0.70240000  1
  H  H26  1  0.34430000  0.59820000  0.45130000  1
  H  H27  1  0.74610000  0.40180000  0.85310000  1
  H  H28  1  0.10700000  0.65570000  0.25390000  1
  H  H29  1  0.45130000  0.34430000  0.59820000  1
  H  H30  1  0.46990000  1.00000000  0.70030000  1
  H  H31  1  0.30860000  1.00000000  0.54520000  1
  H  H32  1  0.34430000  0.45130000  0.59820000  1
  H  H33  1  0.89300000  0.54870000  0.14690000  1
  H  H34  1  0.42480000  0.70240000  0.70240000  1
  H  H35  1  0.72240000  0.29760000  1.00000000  1
  H  H36  1  0.27760000  0.27760000  0.57520000  1
  H  H37  1  0.00000000  0.72240000  0.29760000  1
  H  H38  1  0.23040000  0.53010000  0.53010000  1
  H  H39  1  0.70030000  0.46990000  1.00000000  1
  H  H40  1  0.45480000  0.45480000  0.76340000  1
  H  H41  1  0.00000000  0.54520000  0.30860000  1
  H  H42  1  0.40180000  0.85310000  0.74610000  1
  H  H43  1  0.54870000  0.14690000  0.89300000  1
  H  H44  1  0.14690000  0.89300000  0.54870000  1
  H  H45  1  0.25390000  0.10700000  0.65570000  1
  H  H46  1  0.29760000  1.00000000  0.72240000  1
  H  H47  1  0.40180000  0.74610000  0.85310000  1
  H  H48  1  0.65570000  0.25390000  0.10700000  1
  H  H49  1  0.23660000  0.69140000  0.69140000  1
  H  H50  1  0.54520000  0.30860000  1.00000000  1
  H  H51  1  0.29970000  0.29970000  0.76960000  1
  H  H52  1  0.00000000  0.70030000  0.46990000  1
  H  H53  1  1.00000000  1.00000000  0.47400000  1
  H  H54  1  0.47400000  1.00000000  1.00000000  1
  H  H55  1  0.46990000  0.70030000  1.00000000  1
  H  H56  1  0.76960000  0.29970000  0.29970000  1
  H  H57  1  0.69140000  0.69140000  0.23660000  1
  H  H58  1  0.00000000  0.30860000  0.54520000  1
  H  H59  1  0.10700000  0.25390000  0.65570000  1
  H  H60  1  0.85310000  0.74610000  0.40180000  1
  H  H61  1  0.72240000  1.00000000  0.29760000  1
  H  H62  1  0.54870000  0.89300000  0.14690000  1
  H  H63  1  0.65570000  0.10700000  0.25390000  1
  H  H64  1  0.74610000  0.85310000  0.40180000  1
  H  H65  1  0.89300000  0.14690000  0.54870000  1
  H  H66  1  0.30860000  0.54520000  1.00000000  1
  H  H67  1  0.76340000  0.45480000  0.45480000  1
  H  H68  1  0.53010000  0.53010000  0.23040000  1
  H  H69  1  0.00000000  0.46990000  0.70030000  1
  H  H70  1  0.29760000  0.72240000  1.00000000  1
  H  H71  1  0.57520000  0.27760000  0.27760000  1
  H  H72  1  0.70240000  0.70240000  0.42480000  1
  H  H73  1  0.00000000  0.29760000  0.72240000  1
  H  H74  1  0.14690000  0.54870000  0.89300000  1
  H  H75  1  0.59820000  0.45130000  0.34430000  1
  H  H76  1  0.54520000  1.00000000  0.30860000  1
  H  H77  1  0.70030000  1.00000000  0.46990000  1
  H  H78  1  0.25390000  0.65570000  0.10700000  1
  H  H79  1  0.59820000  0.34430000  0.45130000  1
  H  H80  1  0.45130000  0.59820000  0.34430000  1
  H  H81  1  0.85310000  0.40180000  0.74610000  1
  C  C82  1  0.36758000  0.66222000  0.36758000  1
  C  C83  1  0.30447000  0.62714000  0.30447000  1
  C  C84  1  0.41036000  0.73994000  0.41036000  1
  C  C85  1  0.38577000  0.77894000  0.38577000  1
  C  C86  1  0.31706000  0.74208000  0.31706000  1
  C  C87  1  0.42671000  0.86102000  0.42671000  1
  C  C88  1  0.56569000  0.13898000  0.56569000  1
  C  C89  1  0.67042000  0.26006000  0.67042000  1
  C  C90  1  0.60683000  0.22106000  0.60683000  1
  C  C91  1  0.70536000  0.33778000  0.70536000  1
  C  C92  1  0.57498000  0.25792000  0.57498000  1
  C  C93  1  0.67733000  0.37286000  0.67733000  1
  C  C94  1  0.61129000  0.33300000  0.61129000  1
  C  C95  1  0.37578000  0.59114000  0.43344000  1
  C  C96  1  0.78464000  0.40886000  0.84230000  1
  C  C97  1  0.43431000  1.00000000  0.57329000  1
  C  C98  1  0.05766000  0.62422000  0.21536000  1
  C  C99  1  0.43344000  0.37578000  0.59114000  1
  C  C100  1  0.37286000  0.58023000  0.58023000  1
  C  C101  1  0.79263000  0.41977000  1.00000000  1
  C  C102  1  0.37578000  0.43344000  0.59114000  1
  C  C103  1  0.94234000  0.56656000  0.15770000  1
  C  C104  1  0.39317000  1.00000000  0.61423000  1
  C  C105  1  0.42502000  1.00000000  0.68294000  1
  C  C106  1  0.32958000  1.00000000  0.58964000  1
  C  C107  1  0.33300000  0.61129000  0.61129000  1
  C  C108  1  0.72171000  0.38871000  1.00000000  1
  C  C109  1  0.36758000  0.36758000  0.66222000  1
  C  C110  1  0.00000000  0.63242000  0.29464000  1
  C  C111  1  0.37286000  0.67733000  0.67733000  1
  C  C112  1  0.69553000  0.32267000  1.00000000  1
  C  C113  1  0.25792000  0.57498000  0.57498000  1
  C  C114  1  0.68294000  0.42502000  1.00000000  1
  C  C115  1  0.30447000  0.30447000  0.62714000  1
  C  C116  1  0.00000000  0.69553000  0.32267000  1
  C  C117  1  0.41036000  0.41036000  0.73994000  1
  C  C118  1  0.00000000  0.58964000  0.32958000  1
  C  C119  1  0.38871000  1.00000000  0.72171000  1
  C  C120  1  0.29464000  1.00000000  0.63242000  1
  C  C121  1  0.33778000  0.70536000  0.70536000  1
  C  C122  1  0.63242000  0.29464000  1.00000000  1
  C  C123  1  0.41977000  1.00000000  0.79263000  1
  C  C124  1  0.32267000  1.00000000  0.69553000  1
  C  C125  1  0.40886000  0.84230000  0.78464000  1
  C  C126  1  0.56656000  0.15770000  0.94234000  1
  C  C127  1  0.22106000  0.60683000  0.60683000  1
  C  C128  1  0.61423000  0.39317000  1.00000000  1
  C  C129  1  0.27829000  0.27829000  0.66700000  1
  C  C130  1  0.00000000  0.72171000  0.38871000  1
  C  C131  1  0.38577000  0.38577000  0.77894000  1
  C  C132  1  0.00000000  0.61423000  0.39317000  1
  C  C133  1  0.15770000  0.94234000  0.56656000  1
  C  C134  1  0.21536000  0.05766000  0.62422000  1
  C  C135  1  0.26006000  0.67042000  0.67042000  1
  C  C136  1  0.58964000  0.32958000  1.00000000  1
  C  C137  1  0.00000000  0.79263000  0.41977000  1
  C  C138  1  0.20737000  0.20737000  0.62714000  1
  C  C139  1  0.31706000  0.31706000  0.74208000  1
  C  C140  1  0.00000000  0.68294000  0.42502000  1
  C  C141  1  0.13898000  0.56569000  0.56569000  1
  C  C142  1  0.57329000  0.43431000  1.00000000  1
  C  C143  1  0.40886000  0.78464000  0.84230000  1
  C  C144  1  0.62422000  0.21536000  0.05766000  1
  C  C145  1  0.42671000  0.42671000  0.86102000  1
  C  C146  1  0.00000000  0.57329000  0.43431000  1
  C  C147  1  0.43431000  0.57329000  1.00000000  1
  C  C148  1  0.86102000  0.42671000  0.42671000  1
  C  C149  1  0.05766000  0.21536000  0.62422000  1
  C  C150  1  0.84230000  0.78464000  0.40886000  1
  C  C151  1  0.56569000  0.56569000  0.13898000  1
  C  C152  1  0.00000000  0.43431000  0.57329000  1
  C  C153  1  0.42502000  0.68294000  1.00000000  1
  C  C154  1  0.74208000  0.31706000  0.31706000  1
  C  C155  1  0.41977000  0.79263000  1.00000000  1
  C  C156  1  0.62714000  0.20737000  0.20737000  1
  C  C157  1  0.67042000  0.67042000  0.26006000  1
  C  C158  1  0.00000000  0.32958000  0.58964000  1
  C  C159  1  0.56656000  0.94234000  0.15770000  1
  C  C160  1  0.62422000  0.05766000  0.21536000  1
  C  C161  1  0.39317000  0.61423000  1.00000000  1
  C  C162  1  0.77894000  0.38577000  0.38577000  1
  C  C163  1  0.38871000  0.72171000  1.00000000  1
  C  C164  1  0.66700000  0.27829000  0.27829000  1
  C  C165  1  0.60683000  0.60683000  0.22106000  1
  C  C166  1  0.00000000  0.39317000  0.61423000  1
  C  C167  1  0.78464000  0.84230000  0.40886000  1
  C  C168  1  0.94234000  0.15770000  0.56656000  1
  C  C169  1  0.79263000  1.00000000  0.41977000  1
  C  C170  1  0.69553000  1.00000000  0.32267000  1
  C  C171  1  0.70536000  0.70536000  0.33778000  1
  C  C172  1  0.00000000  0.29464000  0.63242000  1
  C  C173  1  0.63242000  1.00000000  0.29464000  1
  C  C174  1  0.72171000  1.00000000  0.38871000  1
  C  C175  1  0.32958000  0.58964000  1.00000000  1
  C  C176  1  0.73994000  0.41036000  0.41036000  1
  C  C177  1  0.32267000  0.69553000  1.00000000  1
  C  C178  1  0.62714000  0.30447000  0.30447000  1
  C  C179  1  0.57498000  0.57498000  0.25792000  1
  C  C180  1  0.00000000  0.42502000  0.68294000  1
  C  C181  1  0.67733000  0.67733000  0.37286000  1
  C  C182  1  0.00000000  0.32267000  0.69553000  1
  C  C183  1  0.29464000  0.63242000  1.00000000  1
  C  C184  1  0.66222000  0.36758000  0.36758000  1
  C  C185  1  0.61129000  0.61129000  0.33300000  1
  C  C186  1  0.00000000  0.38871000  0.72171000  1
  C  C187  1  0.58964000  1.00000000  0.32958000  1
  C  C188  1  0.68294000  1.00000000  0.42502000  1
  C  C189  1  0.61423000  1.00000000  0.39317000  1
  C  C190  1  0.15770000  0.56656000  0.94234000  1
  C  C191  1  0.59114000  0.43344000  0.37578000  1
  C  C192  1  0.58023000  0.58023000  0.37286000  1
  C  C193  1  0.00000000  0.41977000  0.79263000  1
  C  C194  1  0.21536000  0.62422000  0.05766000  1
  C  C195  1  0.59114000  0.37578000  0.43344000  1
  C  C196  1  0.57329000  1.00000000  0.43431000  1
  C  C197  1  0.43344000  0.59114000  0.37578000  1
  C  C198  1  0.84230000  0.40886000  0.78464000  1
  C  C199  1  0.27829000  0.66700000  0.27829000  1
  C  C200  1  0.20737000  0.62714000  0.20737000  1
  C  C201  1  0.58023000  0.37286000  0.58023000  1
  S  S202  1  0.34456000  0.34456000  0.34456000  1
  S  S203  1  0.00000000  0.65544000  0.00000000  1
  S  S204  1  0.65544000  1.00000000  1.00000000  1
  S  S205  1  0.00000000  0.00000000  0.65544000  1
  N  N206  1  0.39350000  0.61800000  0.39350000  1
  N  N207  1  0.77550000  0.38200000  0.77550000  1
  N  N208  1  0.40787000  0.55315000  0.44490000  1
  N  N209  1  0.85472000  0.44685000  0.89175000  1
  N  N210  1  0.03703000  0.59213000  0.14528000  1
  N  N211  1  0.44490000  0.40787000  0.55315000  1
  N  N212  1  0.40787000  0.44490000  0.55315000  1
  N  N213  1  0.96297000  0.55510000  0.10825000  1
  N  N214  1  0.39350000  0.39350000  0.61800000  1
  N  N215  1  0.00000000  0.60650000  0.22450000  1
  N  N216  1  0.22450000  1.00000000  0.60650000  1
  N  N217  1  0.38200000  0.77550000  0.77550000  1
  N  N218  1  0.60650000  0.22450000  1.00000000  1
  N  N219  1  0.44685000  0.89175000  0.85472000  1
  N  N220  1  0.55510000  0.10825000  0.96297000  1
  N  N221  1  0.44685000  0.85472000  0.89175000  1
  N  N222  1  0.59213000  0.14528000  0.03703000  1
  N  N223  1  0.10825000  0.96297000  0.55510000  1
  N  N224  1  0.14528000  0.03703000  0.59213000  1
  N  N225  1  0.55510000  0.96297000  0.10825000  1
  N  N226  1  0.59213000  0.03703000  0.14528000  1
  N  N227  1  0.03703000  0.14528000  0.59213000  1
  N  N228  1  0.89175000  0.85472000  0.44685000  1
  N  N229  1  0.85472000  0.89175000  0.44685000  1
  N  N230  1  0.96297000  0.10825000  0.55510000  1
  N  N231  1  0.77550000  0.77550000  0.38200000  1
  N  N232  1  0.00000000  0.22450000  0.60650000  1
  N  N233  1  0.60650000  1.00000000  0.22450000  1
  N  N234  1  0.22450000  0.60650000  1.00000000  1
  N  N235  1  0.61800000  0.39350000  0.39350000  1
  N  N236  1  0.10825000  0.55510000  0.96297000  1
  N  N237  1  0.55315000  0.44490000  0.40787000  1
  N  N238  1  0.14528000  0.59213000  0.03703000  1
  N  N239  1  0.55315000  0.40787000  0.44490000  1
  N  N240  1  0.44490000  0.55315000  0.40787000  1
  N  N241  1  0.89175000  0.44685000  0.85472000  1
  O  O242  1  0.48834000  0.48834000  0.48834000  1
  O  O243  1  0.27864000  0.27864000  0.27864000  1
  O  O244  1  0.48709000  0.89204000  0.48709000  1
  O  O245  1  0.00000000  0.51166000  0.00000000  1
  O  O246  1  0.59505000  0.10796000  0.59505000  1
  O  O247  1  0.50725000  0.10642000  0.50725000  1
  O  O248  1  0.06648000  0.67794000  0.06648000  1
  O  O249  1  0.00000000  0.72136000  0.00000000  1
  O  O250  1  0.52044000  0.33444000  0.52044000  1
  O  O251  1  0.61312000  0.44158000  0.61312000  1
  O  O252  1  0.38854000  0.32206000  0.38854000  1
  O  O253  1  0.32206000  0.38854000  0.38854000  1
  O  O254  1  0.93352000  0.61146000  0.00000000  1
  O  O255  1  0.49275000  1.00000000  0.59917000  1
  O  O256  1  0.40495000  1.00000000  0.51291000  1
  O  O257  1  0.44158000  0.61312000  0.61312000  1
  O  O258  1  0.82846000  0.38688000  1.00000000  1
  O  O259  1  0.33444000  0.52044000  0.52044000  1
  O  O260  1  0.81400000  0.47956000  1.00000000  1
  O  O261  1  0.72136000  1.00000000  1.00000000  1
  O  O262  1  0.61146000  1.00000000  0.93352000  1
  O  O263  1  0.47956000  1.00000000  0.81400000  1
  O  O264  1  0.17154000  0.17154000  0.55842000  1
  O  O265  1  0.00000000  0.82846000  0.38688000  1
  O  O266  1  0.61146000  0.93352000  1.00000000  1
  O  O267  1  0.67794000  0.06648000  0.06648000  1
  O  O268  1  0.10642000  0.50725000  0.50725000  1
  O  O269  1  0.59917000  0.49275000  1.00000000  1
  O  O270  1  0.48709000  0.48709000  0.89204000  1
  O  O271  1  0.00000000  0.51291000  0.40495000  1
  O  O272  1  0.38688000  1.00000000  0.82846000  1
  O  O273  1  0.00000000  0.81400000  0.47956000  1
  O  O274  1  0.18600000  0.18600000  0.66556000  1
  O  O275  1  0.10796000  0.59505000  0.59505000  1
  O  O276  1  0.51291000  0.40495000  1.00000000  1
  O  O277  1  0.51166000  1.00000000  1.00000000  1
  O  O278  1  0.40083000  0.40083000  0.89358000  1
  O  O279  1  0.00000000  0.59917000  0.49275000  1
  O  O280  1  0.49275000  0.59917000  1.00000000  1
  O  O281  1  0.89358000  0.40083000  0.40083000  1
  O  O282  1  1.00000000  1.00000000  0.51166000  1
  O  O283  1  0.59505000  0.59505000  0.10796000  1
  O  O284  1  0.00000000  0.40495000  0.51291000  1
  O  O285  1  0.47956000  0.81400000  1.00000000  1
  O  O286  1  0.66556000  0.18600000  0.18600000  1
  O  O287  1  0.82846000  1.00000000  0.38688000  1
  O  O288  1  0.40495000  0.51291000  1.00000000  1
  O  O289  1  0.89204000  0.48709000  0.48709000  1
  O  O290  1  0.50725000  0.50725000  0.10642000  1
  O  O291  1  0.00000000  0.49275000  0.59917000  1
  O  O292  1  0.06648000  0.06648000  0.67794000  1
  O  O293  1  0.00000000  0.93352000  0.61146000  1
  O  O294  1  0.38688000  0.82846000  1.00000000  1
  O  O295  1  0.55842000  0.17154000  0.17154000  1
  O  O296  1  0.81400000  1.00000000  0.47956000  1
  O  O297  1  0.93352000  1.00000000  0.61146000  1
  O  O298  1  1.00000000  1.00000000  0.72136000  1
  O  O299  1  0.52044000  0.52044000  0.33444000  1
  O  O300  1  1.00000000  0.47956000  0.81400000  1
  O  O301  1  0.61312000  0.61312000  0.44158000  1
  O  O302  1  0.00000000  0.38688000  0.82846000  1
  O  O303  1  0.51291000  1.00000000  0.40495000  1
  O  O304  1  0.59917000  1.00000000  0.49275000  1
  O  O305  1  0.38854000  0.38854000  0.32206000  1
  O  O306  1  0.00000000  0.61146000  0.93352000  1
  O  O307  1  0.17154000  0.55842000  0.17154000  1
  O  O308  1  0.18600000  0.66556000  0.18600000  1
  O  O309  1  0.40083000  0.89358000  0.40083000  1
