# generated using pymatgen
data_ErH6(C2O)6
_symmetry_space_group_name_H-M   'P 1'
_cell_length_a   7.01220000
_cell_length_b   11.12410000
_cell_length_c   20.04332897
_cell_angle_alpha   106.11128670
_cell_angle_beta   98.29248793
_cell_angle_gamma   90.00000000
_symmetry_Int_Tables_number   1
_chemical_formula_structural   ErH6(C2O)6
_chemical_formula_sum   'Er4 H24 C48 O24'
_cell_volume   1485.03986277
_cell_formula_units_Z   4
loop_
 _symmetry_equiv_pos_site_id
 _symmetry_equiv_pos_as_xyz
  1  'x, y, z'
loop_
 _atom_site_type_symbol
 _atom_site_label
 _atom_site_symmetry_multiplicity
 _atom_site_fract_x
 _atom_site_fract_y
 _atom_site_fract_z
 _atom_site_occupancy
  Er  Er0  1  0.85334000  0.32983000  0.25937000  1
  Er  Er1  1  0.64666000  0.07046000  0.74063000  1
  Er  Er2  1  0.35334000  0.92954000  0.25937000  1
  Er  Er3  1  0.14666000  0.67017000  0.74063000  1
  H  H4  1  0.99760000  0.20330000  0.99020000  1
  H  H5  1  0.97240000  0.28190000  0.45520000  1
  H  H6  1  0.92370000  0.69340000  0.42540000  1
  H  H7  1  0.86340000  0.83310000  0.90860000  1
  H  H8  1  0.81370000  0.55180000  0.52460000  1
  H  H9  1  0.79710000  0.05630000  0.59320000  1
  H  H10  1  0.70290000  0.46310000  0.40680000  1
  H  H11  1  0.68630000  0.02720000  0.47540000  1
  H  H12  1  0.63660000  0.92450000  0.09140000  1
  H  H13  1  0.57630000  0.26800000  0.57460000  1
  H  H14  1  0.52760000  0.82670000  0.54480000  1
  H  H15  1  0.50240000  0.21310000  0.00980000  1
  H  H16  1  0.49760000  0.78690000  0.99020000  1
  H  H17  1  0.47240000  0.17330000  0.45520000  1
  H  H18  1  0.42370000  0.73200000  0.42540000  1
  H  H19  1  0.36340000  0.07550000  0.90860000  1
  H  H20  1  0.31370000  0.97280000  0.52460000  1
  H  H21  1  0.29710000  0.53690000  0.59320000  1
  H  H22  1  0.20290000  0.94370000  0.40680000  1
  H  H23  1  0.18630000  0.44820000  0.47540000  1
  H  H24  1  0.13660000  0.16690000  0.09140000  1
  H  H25  1  0.07630000  0.30660000  0.57460000  1
  H  H26  1  0.02760000  0.71810000  0.54480000  1
  H  H27  1  0.00240000  0.79670000  0.00980000  1
  C  C28  1  0.99950000  0.12200000  0.99420000  1
  C  C29  1  0.96700000  0.89210000  0.65740000  1
  C  C30  1  0.95650000  0.78000000  0.53100000  1
  C  C31  1  0.91920000  0.89990000  0.94540000  1
  C  C32  1  0.91640000  0.02070000  0.93680000  1
  C  C33  1  0.91470000  0.88460000  0.58200000  1
  C  C34  1  0.89420000  0.76460000  0.45880000  1
  C  C35  1  0.82750000  0.04240000  0.86900000  1
  C  C36  1  0.81790000  0.98190000  0.56040000  1
  C  C37  1  0.78910000  0.85670000  0.43860000  1
  C  C38  1  0.78820000  0.47640000  0.63740000  1
  C  C39  1  0.75450000  0.96440000  0.48940000  1
  C  C40  1  0.74550000  0.47500000  0.51060000  1
  C  C41  1  0.71180000  0.83900000  0.36260000  1
  C  C42  1  0.71090000  0.41810000  0.56140000  1
  C  C43  1  0.68210000  0.42150000  0.43960000  1
  C  C44  1  0.67250000  0.17340000  0.13100000  1
  C  C45  1  0.60580000  0.30580000  0.54120000  1
  C  C46  1  0.58530000  0.30260000  0.41800000  1
  C  C47  1  0.58360000  0.08390000  0.06320000  1
  C  C48  1  0.58080000  0.95450000  0.05460000  1
  C  C49  1  0.54350000  0.24900000  0.46900000  1
  C  C50  1  0.53300000  0.23470000  0.34260000  1
  C  C51  1  0.50050000  0.12780000  0.00580000  1
  C  C52  1  0.49950000  0.87220000  0.99420000  1
  C  C53  1  0.46700000  0.76530000  0.65740000  1
  C  C54  1  0.45650000  0.75100000  0.53100000  1
  C  C55  1  0.41920000  0.04550000  0.94540000  1
  C  C56  1  0.41640000  0.91610000  0.93680000  1
  C  C57  1  0.41470000  0.69740000  0.58200000  1
  C  C58  1  0.39420000  0.69420000  0.45880000  1
  C  C59  1  0.32750000  0.82660000  0.86900000  1
  C  C60  1  0.31790000  0.57850000  0.56040000  1
  C  C61  1  0.28910000  0.58190000  0.43860000  1
  C  C62  1  0.28820000  0.16100000  0.63740000  1
  C  C63  1  0.25450000  0.52500000  0.48940000  1
  C  C64  1  0.24550000  0.03560000  0.51060000  1
  C  C65  1  0.21180000  0.52360000  0.36260000  1
  C  C66  1  0.21090000  0.14330000  0.56140000  1
  C  C67  1  0.18210000  0.01810000  0.43960000  1
  C  C68  1  0.17250000  0.95760000  0.13100000  1
  C  C69  1  0.10580000  0.23540000  0.54120000  1
  C  C70  1  0.08530000  0.11540000  0.41800000  1
  C  C71  1  0.08360000  0.97930000  0.06320000  1
  C  C72  1  0.08080000  0.10010000  0.05460000  1
  C  C73  1  0.04350000  0.22000000  0.46900000  1
  C  C74  1  0.03300000  0.10790000  0.34260000  1
  C  C75  1  0.00050000  0.87800000  0.00580000  1
  O  O76  1  0.94390000  0.54340000  0.65040000  1
  O  O77  1  0.94280000  0.19670000  0.32760000  1
  O  O78  1  0.92220000  0.98870000  0.70400000  1
  O  O79  1  0.85460000  0.14360000  0.85540000  1
  O  O80  1  0.79810000  0.77140000  0.31600000  1
  O  O81  1  0.78600000  0.13370000  0.17480000  1
  O  O82  1  0.71400000  0.95890000  0.82520000  1
  O  O83  1  0.70190000  0.45540000  0.68400000  1
  O  O84  1  0.64540000  0.28820000  0.14460000  1
  O  O85  1  0.57780000  0.28470000  0.29600000  1
  O  O86  1  0.55720000  0.86910000  0.67240000  1
  O  O87  1  0.55610000  0.89300000  0.34960000  1
  O  O88  1  0.44390000  0.10700000  0.65040000  1
  O  O89  1  0.44280000  0.13090000  0.32760000  1
  O  O90  1  0.42220000  0.71530000  0.70400000  1
  O  O91  1  0.35460000  0.71180000  0.85540000  1
  O  O92  1  0.29810000  0.54460000  0.31600000  1
  O  O93  1  0.28600000  0.04110000  0.17480000  1
  O  O94  1  0.21400000  0.86630000  0.82520000  1
  O  O95  1  0.20190000  0.22860000  0.68400000  1
  O  O96  1  0.14540000  0.85640000  0.14460000  1
  O  O97  1  0.07780000  0.01130000  0.29600000  1
  O  O98  1  0.05720000  0.80330000  0.67240000  1
  O  O99  1  0.05610000  0.45660000  0.34960000  1
