# generated using pymatgen
data_Ni2W(CN)8
_symmetry_space_group_name_H-M   'P 1'
_cell_length_a   10.47511254
_cell_length_b   10.47511254
_cell_length_c   10.47511254
_cell_angle_alpha   104.01975657
_cell_angle_beta   112.26381512
_cell_angle_gamma   112.26381512
_symmetry_Int_Tables_number   1
_chemical_formula_structural   Ni2W(CN)8
_chemical_formula_sum   'Ni4 W2 C16 N16'
_cell_volume   878.88788933
_cell_formula_units_Z   2
loop_
 _symmetry_equiv_pos_site_id
 _symmetry_equiv_pos_as_xyz
  1  'x, y, z'
loop_
 _atom_site_type_symbol
 _atom_site_label
 _atom_site_symmetry_multiplicity
 _atom_site_fract_x
 _atom_site_fract_y
 _atom_site_fract_z
 _atom_site_occupancy
  C  C0  1  0.19750000  0.89210000  0.98760000  1
  C  C1  1  0.19750000  0.20990000  0.30540000  1
  C  C2  1  0.94820000  0.73940000  0.52480000  1
  C  C3  1  0.94820000  0.42340000  0.20880000  1
  C  C4  1  0.21460000  0.79120000  0.73940000  1
  C  C5  1  0.21460000  0.47520000  0.42340000  1
  C  C6  1  0.09550000  0.98760000  0.79010000  1
  C  C7  1  0.09550000  0.30540000  0.10790000  1
  C  C8  1  0.90450000  0.01240000  0.20990000  1
  C  C9  1  0.90450000  0.69460000  0.89210000  1
  C  C10  1  0.78540000  0.20880000  0.26060000  1
  C  C11  1  0.78540000  0.52480000  0.57660000  1
  C  C12  1  0.05180000  0.26060000  0.47520000  1
  C  C13  1  0.05180000  0.57660000  0.79120000  1
  C  C14  1  0.80250000  0.10790000  0.01240000  1
  C  C15  1  0.80250000  0.79010000  0.69460000  1
  N  N16  1  0.30910000  0.97721000  0.11011000  1
  N  N17  1  0.30910000  0.19899000  0.33189000  1
  N  N18  1  0.93074000  0.74371000  0.41125000  1
  N  N19  1  0.93074000  0.51949000  0.18703000  1
  N  N20  1  0.33246000  0.81297000  0.74371000  1
  N  N21  1  0.33246000  0.58875000  0.51949000  1
  N  N22  1  0.13290000  0.11011000  0.80101000  1
  N  N23  1  0.13290000  0.33189000  0.02279000  1
  N  N24  1  0.86710000  0.88989000  0.19899000  1
  N  N25  1  0.86710000  0.66811000  0.97721000  1
  N  N26  1  0.66754000  0.18703000  0.25629000  1
  N  N27  1  0.66754000  0.41125000  0.48051000  1
  N  N28  1  0.06926000  0.25629000  0.58875000  1
  N  N29  1  0.06926000  0.48051000  0.81297000  1
  N  N30  1  0.69090000  0.02279000  0.88989000  1
  N  N31  1  0.69090000  0.80101000  0.66811000  1
  Ni  Ni32  1  0.49230000  0.19411000  0.29819000  1
  Ni  Ni33  1  0.89592000  0.70181000  0.19411000  1
  Ni  Ni34  1  0.10408000  0.29819000  0.80589000  1
  Ni  Ni35  1  0.50770000  0.80589000  0.70181000  1
  W  W36  1  0.00000000  0.74899000  0.74899000  1
  W  W37  1  0.00000000  0.25101000  0.25101000  1
