# generated using pymatgen
data_GaC6N4O
_symmetry_space_group_name_H-M   'P 1'
_cell_length_a   6.48720000
_cell_length_b   9.88414922
_cell_length_c   9.88414922
_cell_angle_alpha   70.08260242
_cell_angle_beta   70.84275908
_cell_angle_gamma   70.84275908
_symmetry_Int_Tables_number   1
_chemical_formula_structural   GaC6N4O
_chemical_formula_sum   'Ga2 C12 N8 O2'
_cell_volume   545.90885449
_cell_formula_units_Z   2
loop_
 _symmetry_equiv_pos_site_id
 _symmetry_equiv_pos_as_xyz
  1  'x, y, z'
loop_
 _atom_site_type_symbol
 _atom_site_label
 _atom_site_symmetry_multiplicity
 _atom_site_fract_x
 _atom_site_fract_y
 _atom_site_fract_z
 _atom_site_occupancy
  C  C0  1  0.92140000  0.33070000  0.99930000  1
  C  C1  1  0.24860000  0.33070000  0.99930000  1
  C  C2  1  0.42140000  0.99930000  0.33070000  1
  C  C3  1  0.74860000  0.99930000  0.33070000  1
  C  C4  1  0.03829000  0.42291000  0.00051000  1
  C  C5  1  0.53829000  0.00051000  0.42291000  1
  C  C6  1  0.96171000  0.57709000  0.99949000  1
  C  C7  1  0.46171000  0.99949000  0.57709000  1
  C  C8  1  0.75140000  0.66930000  0.00070000  1
  C  C9  1  0.07860000  0.66930000  0.00070000  1
  C  C10  1  0.25140000  0.00070000  0.66930000  1
  C  C11  1  0.57860000  0.00070000  0.66930000  1
  Ga  Ga12  1  0.00000000  0.00000000  0.00000000  1
  Ga  Ga13  1  0.50000000  0.00000000  0.00000000  1
  N  N14  1  0.04240000  0.19480000  0.00280000  1
  N  N15  1  0.26000000  0.19480000  0.00280000  1
  N  N16  1  0.54240000  0.00280000  0.19480000  1
  N  N17  1  0.76000000  0.00280000  0.19480000  1
  N  N18  1  0.74000000  0.80520000  0.99720000  1
  N  N19  1  0.95760000  0.80520000  0.99720000  1
  N  N20  1  0.24000000  0.99720000  0.80520000  1
  N  N21  1  0.45760000  0.99720000  0.80520000  1
  O  O22  1  0.25000000  0.91280000  0.08720000  1
  O  O23  1  0.75000000  0.08720000  0.91280000  1
