# generated using pymatgen
data_CoH9C8N5O2
_symmetry_space_group_name_H-M   'P 1'
_cell_length_a   15.81890979
_cell_length_b   15.81890000
_cell_length_c   15.81890000
_cell_angle_alpha   100.84500000
_cell_angle_beta   113.94902305
_cell_angle_gamma   113.94902305
_symmetry_Int_Tables_number   1
_chemical_formula_structural   CoH9C8N5O2
_chemical_formula_sum   'Co8 H72 C64 N40 O16'
_cell_volume   2996.56366512
_cell_formula_units_Z   8
loop_
 _symmetry_equiv_pos_site_id
 _symmetry_equiv_pos_as_xyz
  1  'x, y, z'
loop_
 _atom_site_type_symbol
 _atom_site_label
 _atom_site_symmetry_multiplicity
 _atom_site_fract_x
 _atom_site_fract_y
 _atom_site_fract_z
 _atom_site_occupancy
  Co  Co0  1  0.00685000  0.97720000  0.90883000  1
  Co  Co1  1  0.06837000  0.97035000  0.47720000  1
  Co  Co2  1  0.43163000  0.40883000  0.40198000  1
  Co  Co3  1  0.49315000  0.90198000  0.47035000  1
  Co  Co4  1  0.50685000  0.09802000  0.52965000  1
  Co  Co5  1  0.56837000  0.59117000  0.59802000  1
  Co  Co6  1  0.93163000  0.02965000  0.52280000  1
  Co  Co7  1  0.99315000  0.02280000  0.09117000  1
  H  H8  1  0.01460000  0.25550000  0.62030000  1
  H  H9  1  0.02450000  0.73180000  0.02130000  1
  H  H10  1  0.02560000  0.35630000  0.64850000  1
  H  H11  1  0.07250000  0.80170000  0.18940000  1
  H  H12  1  0.07620000  0.31650000  0.46170000  1
  H  H13  1  0.08520000  0.99720000  0.28580000  1
  H  H14  1  0.11230000  0.31060000  0.38310000  1
  H  H15  1  0.13520000  0.87970000  0.89430000  1
  H  H16  1  0.14490000  0.80750000  0.05400000  1
  H  H17  1  0.14520000  0.75970000  0.18350000  1
  H  H18  1  0.15510000  0.27790000  0.47120000  1
  H  H19  1  0.19330000  0.87720000  0.22210000  1
  H  H20  1  0.19810000  0.89210000  0.61120000  1
  H  H21  1  0.20780000  0.85150000  0.87710000  1
  H  H22  1  0.21050000  0.47870000  0.50320000  1
  H  H23  1  0.21140000  0.21420000  0.29940000  1
  H  H24  1  0.21910000  0.11120000  0.91310000  1
  H  H25  1  0.24650000  0.33740000  0.69250000  1
  H  H26  1  0.25350000  0.44600000  0.59090000  1
  H  H27  1  0.28090000  0.69400000  0.39210000  1
  H  H28  1  0.28860000  0.08800000  0.50280000  1
  H  H29  1  0.28950000  0.29270000  0.76820000  1
  H  H30  1  0.29220000  0.66930000  0.14370000  1
  H  H31  1  0.30190000  0.41310000  0.19400000  1
  H  H32  1  0.30670000  0.02880000  0.18390000  1
  H  H33  1  0.34490000  0.31610000  0.62280000  1
  H  H34  1  0.35480000  0.03830000  0.11450000  1
  H  H35  1  0.35510000  0.90910000  0.16260000  1
  H  H36  1  0.36480000  0.75910000  0.24450000  1
  H  H37  1  0.38770000  0.27080000  0.69830000  1
  H  H38  1  0.41480000  0.20060000  0.41200000  1
  H  H39  1  0.42380000  0.38550000  0.74030000  1
  H  H40  1  0.42750000  0.11690000  0.22920000  1
  H  H41  1  0.47440000  0.62290000  0.83070000  1
  H  H42  1  0.47550000  0.99680000  0.20730000  1
  H  H43  1  0.48540000  0.60570000  0.74090000  1
  H  H44  1  0.51460000  0.39430000  0.25910000  1
  H  H45  1  0.52450000  0.00320000  0.79270000  1
  H  H46  1  0.52560000  0.37710000  0.16930000  1
  H  H47  1  0.57250000  0.88310000  0.77080000  1
  H  H48  1  0.57620000  0.61450000  0.25970000  1
  H  H49  1  0.58520000  0.79940000  0.58800000  1
  H  H50  1  0.61230000  0.72920000  0.30170000  1
  H  H51  1  0.63520000  0.24090000  0.75550000  1
  H  H52  1  0.64490000  0.09090000  0.83740000  1
  H  H53  1  0.64520000  0.96170000  0.88550000  1
  H  H54  1  0.65510000  0.68390000  0.37720000  1
  H  H55  1  0.69330000  0.97120000  0.81610000  1
  H  H56  1  0.69810000  0.58690000  0.80600000  1
  H  H57  1  0.70780000  0.33070000  0.85630000  1
  H  H58  1  0.71050000  0.70730000  0.23180000  1
  H  H59  1  0.71140000  0.91200000  0.49720000  1
  H  H60  1  0.71910000  0.30600000  0.60790000  1
  H  H61  1  0.74650000  0.55400000  0.40910000  1
  H  H62  1  0.75350000  0.66260000  0.30750000  1
  H  H63  1  0.78090000  0.88880000  0.08690000  1
  H  H64  1  0.78860000  0.78580000  0.70060000  1
  H  H65  1  0.78950000  0.52130000  0.49680000  1
  H  H66  1  0.79220000  0.14850000  0.12290000  1
  H  H67  1  0.80190000  0.10790000  0.38880000  1
  H  H68  1  0.80670000  0.12280000  0.77790000  1
  H  H69  1  0.84490000  0.72210000  0.52880000  1
  H  H70  1  0.85480000  0.24030000  0.81650000  1
  H  H71  1  0.85510000  0.19250000  0.94600000  1
  H  H72  1  0.86480000  0.12030000  0.10570000  1
  H  H73  1  0.88770000  0.68940000  0.61690000  1
  H  H74  1  0.91480000  0.00280000  0.71420000  1
  H  H75  1  0.92380000  0.68350000  0.53830000  1
  H  H76  1  0.92750000  0.19830000  0.81060000  1
  H  H77  1  0.97440000  0.64370000  0.35150000  1
  H  H78  1  0.97550000  0.26820000  0.97870000  1
  H  H79  1  0.98540000  0.74450000  0.37970000  1
  C  C80  1  0.03945000  0.01827000  0.29004000  1
  C  C81  1  0.05036000  0.94560000  0.65646000  1
  C  C82  1  0.05848000  0.87497000  0.04337000  1
  C  C83  1  0.06825000  0.92798000  0.74273000  1
  C  C84  1  0.08829000  0.80022000  0.06751000  1
  C  C85  1  0.11566000  0.75426000  0.39340000  1
  C  C86  1  0.12840000  0.81060000  0.17540000  1
  C  C87  1  0.13520000  0.32460000  0.45300000  1
  C  C88  1  0.13914000  0.89340000  0.77774000  1
  C  C89  1  0.16288000  0.90093000  0.64379000  1
  C  C90  1  0.16840000  0.18351000  0.62503000  1
  C  C91  1  0.18525000  0.85973000  0.42798000  1
  C  C92  1  0.21086000  0.15646000  0.10610000  1
  C  C93  1  0.22823000  0.20996000  0.24941000  1
  C  C94  1  0.23271000  0.43249000  0.52078000  1
  C  C95  1  0.24286000  0.14379000  0.98091000  1
  C  C96  1  0.25714000  0.73805000  0.40093000  1
  C  C97  1  0.26729000  0.28807000  0.69978000  1
  C  C98  1  0.27177000  0.02118000  0.48173000  1
  C  C99  1  0.28914000  0.89524000  0.44560000  1
  C  C100  1  0.31475000  0.24273000  0.17448000  1
  C  C101  1  0.33160000  0.45663000  0.51511000  1
  C  C102  1  0.33712000  0.48091000  0.23805000  1
  C  C103  1  0.36086000  0.63860000  0.25426000  1
  C  C104  1  0.36480000  0.31780000  0.68940000  1
  C  C105  1  0.37160000  0.04700000  0.18220000  1
  C  C106  1  0.38434000  0.27774000  0.13860000  1
  C  C107  1  0.41171000  0.97922000  0.21193000  1
  C  C108  1  0.43175000  0.67448000  0.35973000  1
  C  C109  1  0.44152000  0.98489000  0.31649000  1
  C  C110  1  0.44964000  0.60610000  0.39524000  1
  C  C111  1  0.46055000  0.25059000  0.47882000  1
  C  C112  1  0.53945000  0.74941000  0.52118000  1
  C  C113  1  0.55036000  0.39390000  0.60476000  1
  C  C114  1  0.55848000  0.01511000  0.68351000  1
  C  C115  1  0.56825000  0.32552000  0.64027000  1
  C  C116  1  0.58829000  0.02078000  0.78807000  1
  C  C117  1  0.61566000  0.72226000  0.86140000  1
  C  C118  1  0.62840000  0.95300000  0.81780000  1
  C  C119  1  0.63520000  0.68220000  0.31060000  1
  C  C120  1  0.63914000  0.36140000  0.74574000  1
  C  C121  1  0.66288000  0.51909000  0.76195000  1
  C  C122  1  0.66840000  0.54337000  0.48489000  1
  C  C123  1  0.68525000  0.75727000  0.82552000  1
  C  C124  1  0.71086000  0.10476000  0.55440000  1
  C  C125  1  0.72823000  0.97882000  0.51827000  1
  C  C126  1  0.73271000  0.71193000  0.30022000  1
  C  C127  1  0.74286000  0.26195000  0.59907000  1
  C  C128  1  0.75714000  0.85621000  0.01909000  1
  C  C129  1  0.76729000  0.56751000  0.47922000  1
  C  C130  1  0.77177000  0.79004000  0.75059000  1
  C  C131  1  0.78914000  0.84354000  0.89390000  1
  C  C132  1  0.81475000  0.14027000  0.57202000  1
  C  C133  1  0.83160000  0.81649000  0.37497000  1
  C  C134  1  0.83712000  0.09907000  0.35621000  1
  C  C135  1  0.86086000  0.10660000  0.22226000  1
  C  C136  1  0.86480000  0.67540000  0.54700000  1
  C  C137  1  0.87160000  0.18940000  0.82460000  1
  C  C138  1  0.88434000  0.24574000  0.60660000  1
  C  C139  1  0.91171000  0.19978000  0.93249000  1
  C  C140  1  0.93175000  0.07202000  0.25727000  1
  C  C141  1  0.94152000  0.12503000  0.95663000  1
  C  C142  1  0.94964000  0.05440000  0.34354000  1
  C  C143  1  0.96055000  0.98173000  0.70996000  1
  N  N144  1  0.00952000  0.95210000  0.77770000  1
  N  N145  1  0.01293000  0.70873000  0.37238000  1
  N  N146  1  0.01901000  0.02044000  0.36503000  1
  N  N147  1  0.09620000  0.93217000  0.60277000  1
  N  N148  1  0.15541000  0.13497000  0.15398000  1
  N  N149  1  0.15572000  0.69492000  0.38074000  1
  N  N150  1  0.16365000  0.87238000  0.85945000  1
  N  N151  1  0.17060000  0.10277000  0.00657000  1
  N  N152  1  0.17440000  0.94258000  0.45210000  1
  N  N153  1  0.18582000  0.88074000  0.72502000  1
  N  N154  1  0.31418000  0.53920000  0.19492000  1
  N  N155  1  0.32560000  0.27770000  0.26818000  1
  N  N156  1  0.32940000  0.83597000  0.43217000  1
  N  N157  1  0.33635000  0.69580000  0.20873000  1
  N  N158  1  0.34428000  0.22502000  0.03920000  1
  N  N159  1  0.34459000  0.99857000  0.47956000  1
  N  N160  1  0.40380000  0.50657000  0.33597000  1
  N  N161  1  0.48099000  0.34602000  0.50143000  1
  N  N162  1  0.48707000  0.35945000  0.19580000  1
  N  N163  1  0.49048000  0.76818000  0.44258000  1
  N  N164  1  0.50952000  0.23182000  0.55742000  1
  N  N165  1  0.51293000  0.64055000  0.80420000  1
  N  N166  1  0.51901000  0.65398000  0.49857000  1
  N  N167  1  0.59620000  0.49343000  0.66403000  1
  N  N168  1  0.65541000  0.00143000  0.52044000  1
  N  N169  1  0.65572000  0.77498000  0.96080000  1
  N  N170  1  0.66365000  0.30420000  0.79127000  1
  N  N171  1  0.67060000  0.16403000  0.56783000  1
  N  N172  1  0.67440000  0.72230000  0.73182000  1
  N  N173  1  0.68582000  0.46080000  0.80508000  1
  N  N174  1  0.81418000  0.11926000  0.27498000  1
  N  N175  1  0.82560000  0.05742000  0.54790000  1
  N  N176  1  0.82940000  0.89723000  0.99343000  1
  N  N177  1  0.83635000  0.12762000  0.14055000  1
  N  N178  1  0.84428000  0.30508000  0.61926000  1
  N  N179  1  0.84459000  0.86503000  0.84602000  1
  N  N180  1  0.90380000  0.06783000  0.39723000  1
  N  N181  1  0.98099000  0.97956000  0.63497000  1
  N  N182  1  0.98707000  0.29127000  0.62762000  1
  N  N183  1  0.99048000  0.04790000  0.22230000  1
  O  O184  1  0.03633000  0.91719000  0.09896000  1
  O  O185  1  0.05528000  0.88933000  0.96655000  1
  O  O186  1  0.07722000  0.16595000  0.61067000  1
  O  O187  1  0.18177000  0.11914000  0.58281000  1
  O  O188  1  0.31823000  0.40104000  0.43737000  1
  O  O189  1  0.42278000  0.53345000  0.58873000  1
  O  O190  1  0.44472000  0.91127000  0.33405000  1
  O  O191  1  0.46367000  0.06263000  0.38086000  1
  O  O192  1  0.53633000  0.93737000  0.61914000  1
  O  O193  1  0.55528000  0.08873000  0.66595000  1
  O  O194  1  0.57722000  0.46655000  0.41127000  1
  O  O195  1  0.68177000  0.59896000  0.56263000  1
  O  O196  1  0.81823000  0.88086000  0.41719000  1
  O  O197  1  0.92278000  0.83405000  0.38933000  1
  O  O198  1  0.94472000  0.11067000  0.03345000  1
  O  O199  1  0.96367000  0.08281000  0.90104000  1
