# generated using pymatgen
data_SmCu3H12C18Br3(NO2)3
_symmetry_space_group_name_H-M   'P 1'
_cell_length_a   9.85100000
_cell_length_b   14.82200000
_cell_length_c   20.23300000
_cell_angle_alpha   73.44800000
_cell_angle_beta   82.98700000
_cell_angle_gamma   77.72100000
_symmetry_Int_Tables_number   1
_chemical_formula_structural   SmCu3H12C18Br3(NO2)3
_chemical_formula_sum   'Sm4 Cu12 H48 C72 Br12 N12 O24'
_cell_volume   2761.07677278
_cell_formula_units_Z   4
loop_
 _symmetry_equiv_pos_site_id
 _symmetry_equiv_pos_as_xyz
  1  'x, y, z'
loop_
 _atom_site_type_symbol
 _atom_site_label
 _atom_site_symmetry_multiplicity
 _atom_site_fract_x
 _atom_site_fract_y
 _atom_site_fract_z
 _atom_site_occupancy
  Sm  Sm0  1  0.12957000  0.94780000  0.20334000  1
  Sm  Sm1  1  0.33627000  0.04701000  0.81161000  1
  Sm  Sm2  1  0.66373000  0.95299000  0.18839000  1
  Sm  Sm3  1  0.87043000  0.05220000  0.79666000  1
  Cu  Cu4  1  0.01460000  0.66865000  0.67292000  1
  Cu  Cu5  1  0.09836000  0.59986000  0.55335000  1
  Cu  Cu6  1  0.22612000  0.74345000  0.57154000  1
  Cu  Cu7  1  0.25893000  0.56095000  0.65859000  1
  Cu  Cu8  1  0.32821000  0.50302000  0.11462000  1
  Cu  Cu9  1  0.40638000  0.51279000  0.94702000  1
  Cu  Cu10  1  0.59362000  0.48721000  0.05298000  1
  Cu  Cu11  1  0.67179000  0.49698000  0.88538000  1
  Cu  Cu12  1  0.74107000  0.43905000  0.34141000  1
  Cu  Cu13  1  0.77388000  0.25655000  0.42846000  1
  Cu  Cu14  1  0.90164000  0.40014000  0.44665000  1
  Cu  Cu15  1  0.98540000  0.33135000  0.32708000  1
  H  H16  1  0.04000000  0.45600000  0.14450000  1
  H  H17  1  0.06950000  0.71860000  0.41270000  1
  H  H18  1  0.07410000  0.18860000  0.08000000  1
  H  H19  1  0.09120000  0.34990000  0.03660000  1
  H  H20  1  0.10430000  0.53720000  0.97330000  1
  H  H21  1  0.11790000  0.19880000  0.24480000  1
  H  H22  1  0.18120000  0.68660000  0.13580000  1
  H  H23  1  0.18310000  0.46660000  0.84670000  1
  H  H24  1  0.18710000  0.43260000  0.46600000  1
  H  H25  1  0.22930000  0.30280000  0.85360000  1
  H  H26  1  0.23190000  0.69910000  0.28000000  1
  H  H27  1  0.23530000  0.54270000  0.34570000  1
  H  H28  1  0.25630000  0.87830000  0.64580000  1
  H  H29  1  0.26400000  0.39420000  0.29420000  1
  H  H30  1  0.31960000  0.24880000  0.64140000  1
  H  H31  1  0.33130000  0.12730000  0.48430000  1
  H  H32  1  0.33900000  0.72710000  0.91070000  1
  H  H33  1  0.35320000  0.35390000  0.72190000  1
  H  H34  1  0.35770000  0.36850000  0.54060000  1
  H  H35  1  0.37510000  0.04180000  0.40220000  1
  H  H36  1  0.44190000  0.44400000  0.37640000  1
  H  H37  1  0.47720000  0.78800000  0.79660000  1
  H  H38  1  0.48250000  0.33930000  0.25380000  1
  H  H39  1  0.49530000  0.21070000  0.49540000  1
  H  H40  1  0.50470000  0.78930000  0.50460000  1
  H  H41  1  0.51750000  0.66070000  0.74620000  1
  H  H42  1  0.52280000  0.21200000  0.20340000  1
  H  H43  1  0.55810000  0.55600000  0.62360000  1
  H  H44  1  0.62490000  0.95820000  0.59780000  1
  H  H45  1  0.64230000  0.63150000  0.45940000  1
  H  H46  1  0.64680000  0.64610000  0.27810000  1
  H  H47  1  0.66100000  0.27290000  0.08930000  1
  H  H48  1  0.66870000  0.87270000  0.51570000  1
  H  H49  1  0.68040000  0.75120000  0.35860000  1
  H  H50  1  0.73600000  0.60580000  0.70580000  1
  H  H51  1  0.74370000  0.12170000  0.35420000  1
  H  H52  1  0.76470000  0.45730000  0.65430000  1
  H  H53  1  0.76810000  0.30090000  0.72000000  1
  H  H54  1  0.77070000  0.69720000  0.14640000  1
  H  H55  1  0.81290000  0.56740000  0.53400000  1
  H  H56  1  0.81690000  0.53340000  0.15330000  1
  H  H57  1  0.81880000  0.31340000  0.86420000  1
  H  H58  1  0.88210000  0.80120000  0.75520000  1
  H  H59  1  0.89570000  0.46280000  0.02670000  1
  H  H60  1  0.90880000  0.65010000  0.96340000  1
  H  H61  1  0.92590000  0.81140000  0.92000000  1
  H  H62  1  0.93050000  0.28140000  0.58730000  1
  H  H63  1  0.96000000  0.54400000  0.85550000  1
  C  C64  1  0.00470000  0.33190000  0.04890000  1
  C  C65  1  0.00500000  0.76360000  0.92630000  1
  C  C66  1  0.01810000  0.29800000  0.57780000  1
  C  C67  1  0.02350000  0.52040000  0.14380000  1
  C  C68  1  0.02670000  0.29150000  0.85960000  1
  C  C69  1  0.04610000  0.18700000  0.86100000  1
  C  C70  1  0.08230000  0.18390000  0.69050000  1
  C  C71  1  0.10680000  0.65620000  0.13790000  1
  C  C72  1  0.11040000  0.43350000  0.85170000  1
  C  C73  1  0.11380000  0.60100000  0.95730000  1
  C  C74  1  0.11740000  0.25370000  0.62590000  1
  C  C75  1  0.13590000  0.78520000  0.91120000  1
  C  C76  1  0.13820000  0.33640000  0.85480000  1
  C  C77  1  0.15820000  0.88670000  0.88480000  1
  C  C78  1  0.16930000  0.38700000  0.50670000  1
  C  C79  1  0.19260000  0.22750000  0.24600000  1
  C  C80  1  0.24920000  0.27840000  0.61130000  1
  C  C81  1  0.25100000  0.71120000  0.92040000  1
  C  C82  1  0.27250000  0.34850000  0.55070000  1
  C  C83  1  0.27850000  0.34180000  0.27580000  1
  C  C84  1  0.31590000  0.65820000  0.29240000  1
  C  C85  1  0.31820000  0.56520000  0.33140000  1
  C  C86  1  0.32030000  0.19240000  0.21780000  1
  C  C87  1  0.33600000  0.11000000  0.18700000  1
  C  C88  1  0.34100000  0.87660000  0.61980000  1
  C  C89  1  0.40180000  0.97740000  0.68740000  1
  C  C90  1  0.40960000  0.31010000  0.25080000  1
  C  C91  1  0.41400000  0.12580000  0.45670000  1
  C  C92  1  0.43420000  0.23440000  0.22080000  1
  C  C93  1  0.43640000  0.92770000  0.63170000  1
  C  C94  1  0.43740000  0.37490000  0.70870000  1
  C  C95  1  0.44090000  0.07490000  0.40810000  1
  C  C96  1  0.44090000  0.68980000  0.27200000  1
  C  C97  1  0.44250000  0.50600000  0.34890000  1
  C  C98  1  0.44770000  0.78970000  0.22830000  1
  C  C99  1  0.48590000  0.82510000  0.53680000  1
  C  C100  1  0.51410000  0.17490000  0.46320000  1
  C  C101  1  0.55230000  0.21030000  0.77170000  1
  C  C102  1  0.55750000  0.49400000  0.65110000  1
  C  C103  1  0.55910000  0.31020000  0.72800000  1
  C  C104  1  0.55910000  0.92510000  0.59190000  1
  C  C105  1  0.56260000  0.62510000  0.29130000  1
  C  C106  1  0.56360000  0.07230000  0.36830000  1
  C  C107  1  0.56580000  0.76560000  0.77920000  1
  C  C108  1  0.58600000  0.87420000  0.54330000  1
  C  C109  1  0.59040000  0.68990000  0.74920000  1
  C  C110  1  0.59820000  0.02260000  0.31260000  1
  C  C111  1  0.65900000  0.12340000  0.38020000  1
  C  C112  1  0.66400000  0.89000000  0.81300000  1
  C  C113  1  0.67970000  0.80760000  0.78220000  1
  C  C114  1  0.68180000  0.43480000  0.66860000  1
  C  C115  1  0.68410000  0.34180000  0.70760000  1
  C  C116  1  0.72150000  0.65820000  0.72420000  1
  C  C117  1  0.72750000  0.65150000  0.44930000  1
  C  C118  1  0.74900000  0.28880000  0.07960000  1
  C  C119  1  0.75080000  0.72160000  0.38870000  1
  C  C120  1  0.80740000  0.77250000  0.75400000  1
  C  C121  1  0.83070000  0.61300000  0.49330000  1
  C  C122  1  0.84180000  0.11330000  0.11520000  1
  C  C123  1  0.86180000  0.66360000  0.14520000  1
  C  C124  1  0.86410000  0.21480000  0.08880000  1
  C  C125  1  0.88260000  0.74630000  0.37410000  1
  C  C126  1  0.88620000  0.39900000  0.04270000  1
  C  C127  1  0.88960000  0.56650000  0.14830000  1
  C  C128  1  0.89320000  0.34380000  0.86210000  1
  C  C129  1  0.91770000  0.81610000  0.30950000  1
  C  C130  1  0.95390000  0.81300000  0.13900000  1
  C  C131  1  0.97330000  0.70850000  0.14040000  1
  C  C132  1  0.97650000  0.47960000  0.85620000  1
  C  C133  1  0.98190000  0.70200000  0.42220000  1
  C  C134  1  0.99500000  0.23640000  0.07370000  1
  C  C135  1  0.99530000  0.66810000  0.95110000  1
  Br  Br136  1  0.01729000  0.18481000  0.43655000  1
  Br  Br137  1  0.03741000  0.49713000  0.66214000  1
  Br  Br138  1  0.21626000  0.67564000  0.72796000  1
  Br  Br139  1  0.32729000  0.62675000  0.50820000  1
  Br  Br140  1  0.37573000  0.38309000  0.05492000  1
  Br  Br141  1  0.49768000  0.42310000  0.86421000  1
  Br  Br142  1  0.50232000  0.57690000  0.13579000  1
  Br  Br143  1  0.62427000  0.61691000  0.94508000  1
  Br  Br144  1  0.67271000  0.37325000  0.49180000  1
  Br  Br145  1  0.78374000  0.32436000  0.27204000  1
  Br  Br146  1  0.96259000  0.50287000  0.33786000  1
  Br  Br147  1  0.98271000  0.81519000  0.56345000  1
  N  N148  1  0.04150000  0.36290000  0.51880000  1
  N  N149  1  0.13420000  0.56290000  0.13850000  1
  N  N150  1  0.16950000  0.30090000  0.27510000  1
  N  N151  1  0.24260000  0.61870000  0.94240000  1
  N  N152  1  0.36540000  0.82580000  0.57340000  1
  N  N153  1  0.43430000  0.46630000  0.67200000  1
  N  N154  1  0.56570000  0.53370000  0.32800000  1
  N  N155  1  0.63460000  0.17420000  0.42660000  1
  N  N156  1  0.75740000  0.38130000  0.05760000  1
  N  N157  1  0.83050000  0.69910000  0.72490000  1
  N  N158  1  0.86580000  0.43710000  0.86150000  1
  N  N159  1  0.95850000  0.63710000  0.48120000  1
  O  O160  1  0.04090000  0.83290000  0.29850000  1
  O  O161  1  0.05570000  0.84080000  0.15130000  1
  O  O162  1  0.06370000  0.95070000  0.85540000  1
  O  O163  1  0.16610000  0.13720000  0.87380000  1
  O  O164  1  0.17520000  0.14380000  0.73280000  1
  O  O165  1  0.22830000  0.08570000  0.17810000  1
  O  O166  1  0.27470000  0.90400000  0.89200000  1
  O  O167  1  0.30520000  0.95210000  0.73330000  1
  O  O168  1  0.33930000  0.83900000  0.20130000  1
  O  O169  1  0.43750000  0.18370000  0.77810000  1
  O  O170  1  0.45630000  0.06910000  0.17320000  1
  O  O171  1  0.46720000  0.03880000  0.69160000  1
  O  O172  1  0.53280000  0.96120000  0.30840000  1
  O  O173  1  0.54370000  0.93090000  0.82680000  1
  O  O174  1  0.56250000  0.81630000  0.22190000  1
  O  O175  1  0.66070000  0.16100000  0.79870000  1
  O  O176  1  0.69480000  0.04790000  0.26670000  1
  O  O177  1  0.72530000  0.09600000  0.10800000  1
  O  O178  1  0.77170000  0.91430000  0.82190000  1
  O  O179  1  0.82480000  0.85620000  0.26720000  1
  O  O180  1  0.83390000  0.86280000  0.12620000  1
  O  O181  1  0.93630000  0.04930000  0.14460000  1
  O  O182  1  0.94430000  0.15920000  0.84870000  1
  O  O183  1  0.95910000  0.16710000  0.70150000  1
