# generated using pymatgen
data_ZnCo4H12C36N18(Cl2O3)2
_symmetry_space_group_name_H-M   'P 1'
_cell_length_a   21.91680000
_cell_length_b   21.91680000
_cell_length_c   21.91680000
_cell_angle_alpha   60.00000000
_cell_angle_beta   60.00000000
_cell_angle_gamma   60.00000000
_symmetry_Int_Tables_number   1
_chemical_formula_structural   ZnCo4H12C36N18(Cl2O3)2
_chemical_formula_sum   'Zn2 Co8 H24 C72 N36 Cl8 O12'
_cell_volume   7444.17262853
_cell_formula_units_Z   2
loop_
 _symmetry_equiv_pos_site_id
 _symmetry_equiv_pos_as_xyz
  1  'x, y, z'
loop_
 _atom_site_type_symbol
 _atom_site_label
 _atom_site_symmetry_multiplicity
 _atom_site_fract_x
 _atom_site_fract_y
 _atom_site_fract_z
 _atom_site_occupancy
  Zn  Zn0  1  0.75000000  0.75000000  0.75000000  1
  Zn  Zn1  1  0.25000000  0.25000000  0.25000000  1
  Co  Co2  1  0.54454000  0.81849000  0.81848000  1
  Co  Co3  1  0.81849000  0.54454000  0.81848000  1
  Co  Co4  1  0.81849000  0.81849000  0.81848000  1
  Co  Co5  1  0.81849000  0.81849000  0.54453000  1
  Co  Co6  1  0.18151000  0.18151000  0.45547000  1
  Co  Co7  1  0.18151000  0.18151000  0.18152000  1
  Co  Co8  1  0.18151000  0.45546000  0.18152000  1
  Co  Co9  1  0.45546000  0.18151000  0.18152000  1
  H  H10  1  0.47099000  0.68647000  0.92127000  1
  H  H11  1  0.68647000  0.47099000  0.92127000  1
  H  H12  1  0.47099000  0.92127000  0.92127000  1
  H  H13  1  0.92127000  0.47099000  0.92127000  1
  H  H14  1  0.68647000  0.92127000  0.92127000  1
  H  H15  1  0.92127000  0.68647000  0.92127000  1
  H  H16  1  0.47099000  0.92127000  0.68647000  1
  H  H17  1  0.92127000  0.47099000  0.68647000  1
  H  H18  1  0.92127000  0.92127000  0.68647000  1
  H  H19  1  0.07873000  0.07873000  0.52901000  1
  H  H20  1  0.07873000  0.31353000  0.52901000  1
  H  H21  1  0.31353000  0.07873000  0.52901000  1
  H  H22  1  0.68647000  0.92127000  0.47099000  1
  H  H23  1  0.92127000  0.68647000  0.47099000  1
  H  H24  1  0.92127000  0.92127000  0.47099000  1
  H  H25  1  0.07873000  0.07873000  0.31353000  1
  H  H26  1  0.07873000  0.52901000  0.31353000  1
  H  H27  1  0.52901000  0.07873000  0.31353000  1
  H  H28  1  0.07873000  0.31353000  0.07873000  1
  H  H29  1  0.31353000  0.07873000  0.07873000  1
  H  H30  1  0.07873000  0.52901000  0.07873000  1
  H  H31  1  0.52901000  0.07873000  0.07873000  1
  H  H32  1  0.31353000  0.52901000  0.07873000  1
  H  H33  1  0.52901000  0.31353000  0.07873000  1
  C  C34  1  0.50504000  0.57256000  0.96120000  1
  C  C35  1  0.57256000  0.50504000  0.96120000  1
  C  C36  1  0.50504000  0.96120000  0.96120000  1
  C  C37  1  0.96120000  0.50504000  0.96120000  1
  C  C38  1  0.57256000  0.96120000  0.96120000  1
  C  C39  1  0.96120000  0.57256000  0.96120000  1
  C  C40  1  0.51325000  0.64375000  0.92150000  1
  C  C41  1  0.64375000  0.51325000  0.92150000  1
  C  C42  1  0.51325000  0.92150000  0.92150000  1
  C  C43  1  0.92150000  0.51325000  0.92150000  1
  C  C44  1  0.64375000  0.92150000  0.92150000  1
  C  C45  1  0.92150000  0.64375000  0.92150000  1
  C  C46  1  0.58429000  0.65037000  0.88267000  1
  C  C47  1  0.65037000  0.58429000  0.88267000  1
  C  C48  1  0.58429000  0.88267000  0.88267000  1
  C  C49  1  0.88267000  0.58429000  0.88267000  1
  C  C50  1  0.65037000  0.88267000  0.88267000  1
  C  C51  1  0.88267000  0.65037000  0.88267000  1
  C  C52  1  0.58429000  0.88267000  0.65037000  1
  C  C53  1  0.88267000  0.58429000  0.65037000  1
  C  C54  1  0.88267000  0.88267000  0.65037000  1
  C  C55  1  0.51325000  0.92150000  0.64375000  1
  C  C56  1  0.92150000  0.51325000  0.64375000  1
  C  C57  1  0.92150000  0.92150000  0.64375000  1
  C  C58  1  0.65037000  0.88267000  0.58429000  1
  C  C59  1  0.88267000  0.65037000  0.58429000  1
  C  C60  1  0.88267000  0.88267000  0.58429000  1
  C  C61  1  0.50504000  0.96120000  0.57256000  1
  C  C62  1  0.96120000  0.50504000  0.57256000  1
  C  C63  1  0.96120000  0.96120000  0.57256000  1
  C  C64  1  0.64375000  0.92150000  0.51325000  1
  C  C65  1  0.92150000  0.64375000  0.51325000  1
  C  C66  1  0.92150000  0.92150000  0.51325000  1
  C  C67  1  0.57256000  0.96120000  0.50504000  1
  C  C68  1  0.96120000  0.57256000  0.50504000  1
  C  C69  1  0.96120000  0.96120000  0.50504000  1
  C  C70  1  0.03880000  0.03880000  0.49496000  1
  C  C71  1  0.03880000  0.42744000  0.49496000  1
  C  C72  1  0.42744000  0.03880000  0.49496000  1
  C  C73  1  0.07850000  0.07850000  0.48675000  1
  C  C74  1  0.07850000  0.35625000  0.48675000  1
  C  C75  1  0.35625000  0.07850000  0.48675000  1
  C  C76  1  0.03880000  0.03880000  0.42744000  1
  C  C77  1  0.03880000  0.49496000  0.42744000  1
  C  C78  1  0.49496000  0.03880000  0.42744000  1
  C  C79  1  0.11733000  0.11733000  0.41571000  1
  C  C80  1  0.11733000  0.34963000  0.41571000  1
  C  C81  1  0.34963000  0.11733000  0.41571000  1
  C  C82  1  0.07850000  0.07850000  0.35625000  1
  C  C83  1  0.07850000  0.48675000  0.35625000  1
  C  C84  1  0.48675000  0.07850000  0.35625000  1
  C  C85  1  0.11733000  0.11733000  0.34963000  1
  C  C86  1  0.11733000  0.41571000  0.34963000  1
  C  C87  1  0.41571000  0.11733000  0.34963000  1
  C  C88  1  0.11733000  0.34963000  0.11733000  1
  C  C89  1  0.34963000  0.11733000  0.11733000  1
  C  C90  1  0.11733000  0.41571000  0.11733000  1
  C  C91  1  0.41571000  0.11733000  0.11733000  1
  C  C92  1  0.34963000  0.41571000  0.11733000  1
  C  C93  1  0.41571000  0.34963000  0.11733000  1
  C  C94  1  0.07850000  0.35625000  0.07850000  1
  C  C95  1  0.35625000  0.07850000  0.07850000  1
  C  C96  1  0.07850000  0.48675000  0.07850000  1
  C  C97  1  0.48675000  0.07850000  0.07850000  1
  C  C98  1  0.35625000  0.48675000  0.07850000  1
  C  C99  1  0.48675000  0.35625000  0.07850000  1
  C  C100  1  0.03880000  0.42744000  0.03880000  1
  C  C101  1  0.42744000  0.03880000  0.03880000  1
  C  C102  1  0.03880000  0.49496000  0.03880000  1
  C  C103  1  0.49496000  0.03880000  0.03880000  1
  C  C104  1  0.42744000  0.49496000  0.03880000  1
  C  C105  1  0.49496000  0.42744000  0.03880000  1
  N  N106  1  0.60971000  0.71049000  0.83990000  1
  N  N107  1  0.71049000  0.60971000  0.83990000  1
  N  N108  1  0.60971000  0.83990000  0.83990000  1
  N  N109  1  0.83990000  0.60971000  0.83990000  1
  N  N110  1  0.71049000  0.83990000  0.83990000  1
  N  N111  1  0.83990000  0.71049000  0.83990000  1
  N  N112  1  0.68540000  0.68540000  0.81460000  1
  N  N113  1  0.68540000  0.81460000  0.81460000  1
  N  N114  1  0.81460000  0.68540000  0.81460000  1
  N  N115  1  0.60971000  0.83990000  0.71049000  1
  N  N116  1  0.83990000  0.60971000  0.71049000  1
  N  N117  1  0.83990000  0.83990000  0.71049000  1
  N  N118  1  0.68540000  0.81460000  0.68540000  1
  N  N119  1  0.81460000  0.68540000  0.68540000  1
  N  N120  1  0.81460000  0.81460000  0.68540000  1
  N  N121  1  0.71049000  0.83990000  0.60971000  1
  N  N122  1  0.83990000  0.71049000  0.60971000  1
  N  N123  1  0.83990000  0.83990000  0.60971000  1
  N  N124  1  0.16010000  0.16010000  0.39029000  1
  N  N125  1  0.16010000  0.28951000  0.39029000  1
  N  N126  1  0.28951000  0.16010000  0.39029000  1
  N  N127  1  0.18540000  0.18540000  0.31460000  1
  N  N128  1  0.18540000  0.31460000  0.31460000  1
  N  N129  1  0.31460000  0.18540000  0.31460000  1
  N  N130  1  0.16010000  0.16010000  0.28951000  1
  N  N131  1  0.16010000  0.39029000  0.28951000  1
  N  N132  1  0.39029000  0.16010000  0.28951000  1
  N  N133  1  0.18540000  0.31460000  0.18540000  1
  N  N134  1  0.31460000  0.18540000  0.18540000  1
  N  N135  1  0.31460000  0.31460000  0.18540000  1
  N  N136  1  0.16010000  0.28951000  0.16010000  1
  N  N137  1  0.28951000  0.16010000  0.16010000  1
  N  N138  1  0.16010000  0.39029000  0.16010000  1
  N  N139  1  0.39029000  0.16010000  0.16010000  1
  N  N140  1  0.28951000  0.39029000  0.16010000  1
  N  N141  1  0.39029000  0.28951000  0.16010000  1
  Cl  Cl142  1  0.43236000  0.85588000  0.85588000  1
  Cl  Cl143  1  0.85588000  0.43236000  0.85588000  1
  Cl  Cl144  1  0.85588000  0.85588000  0.85588000  1
  Cl  Cl145  1  0.14412000  0.14412000  0.56764000  1
  Cl  Cl146  1  0.85588000  0.85588000  0.43236000  1
  Cl  Cl147  1  0.14412000  0.14412000  0.14412000  1
  Cl  Cl148  1  0.14412000  0.56764000  0.14412000  1
  Cl  Cl149  1  0.56764000  0.14412000  0.14412000  1
  O  O150  1  0.43319000  0.56681000  0.00000000  1
  O  O151  1  0.56681000  0.43319000  0.00000000  1
  O  O152  1  0.43319000  0.00000000  0.56681000  1
  O  O153  1  0.00000000  0.43319000  0.56681000  1
  O  O154  1  0.00000000  0.00000000  0.56681000  1
  O  O155  1  0.56681000  0.00000000  0.43319000  1
  O  O156  1  0.00000000  0.56681000  0.43319000  1
  O  O157  1  1.00000000  0.00000000  0.43319000  1
  O  O158  1  0.43319000  0.00000000  1.00000000  1
  O  O159  1  0.00000000  0.43319000  1.00000000  1
  O  O160  1  0.56681000  0.00000000  0.00000000  1
  O  O161  1  0.00000000  0.56681000  0.00000000  1
