# generated using pymatgen
data_Fe2C4Cl2O9
_symmetry_space_group_name_H-M   'P 1'
_cell_length_a   8.77772062
_cell_length_b   8.77772062
_cell_length_c   12.63274683
_cell_angle_alpha   101.14918469
_cell_angle_beta   101.14918469
_cell_angle_gamma   116.32273181
_symmetry_Int_Tables_number   1
_chemical_formula_structural   Fe2C4Cl2O9
_chemical_formula_sum   'Fe4 C8 Cl4 O18'
_cell_volume   811.68821222
_cell_formula_units_Z   2
loop_
 _symmetry_equiv_pos_site_id
 _symmetry_equiv_pos_as_xyz
  1  'x, y, z'
loop_
 _atom_site_type_symbol
 _atom_site_label
 _atom_site_symmetry_multiplicity
 _atom_site_fract_x
 _atom_site_fract_y
 _atom_site_fract_z
 _atom_site_occupancy
  C  C0  1  0.60245000  0.68785000  0.78450000  1
  C  C1  1  0.69928000  0.81948000  0.72436000  1
  C  C2  1  0.06948000  0.44928000  0.22436000  1
  C  C3  1  0.93785000  0.35245000  0.28450000  1
  C  C4  1  0.06795000  0.65335000  0.71550000  1
  C  C5  1  0.22492000  0.84512000  0.77564000  1
  C  C6  1  0.09512000  0.97492000  0.27564000  1
  C  C7  1  0.90335000  0.81795000  0.21550000  1
  Cl  Cl8  1  0.28257000  0.41983000  0.49160000  1
  Cl  Cl9  1  0.66983000  0.03257000  0.99160000  1
  Cl  Cl10  1  0.04097000  0.67823000  0.00840000  1
  Cl  Cl11  1  0.92823000  0.79097000  0.50840000  1
  Fe  Fe12  1  0.92850000  0.08238000  0.11230000  1
  Fe  Fe13  1  0.33238000  0.67850000  0.61230000  1
  Fe  Fe14  1  0.06620000  0.72008000  0.38770000  1
  Fe  Fe15  1  0.97008000  0.81620000  0.88770000  1
  O  O16  1  0.02970000  0.02970000  0.00000000  1
  O  O17  1  0.86726000  0.90106000  0.75952000  1
  O  O18  1  0.80692000  0.84092000  0.13964000  1
  O  O19  1  0.43566000  0.61046000  0.75192000  1
  O  O20  1  0.60270000  0.83630000  0.64560000  1
  O  O21  1  0.08630000  0.35270000  0.14560000  1
  O  O22  1  0.86046000  0.18566000  0.25192000  1
  O  O23  1  0.09092000  0.55692000  0.63964000  1
  O  O24  1  0.15106000  0.61726000  0.25952000  1
  O  O25  1  0.27970000  0.77970000  0.50000000  1
  O  O26  1  0.35774000  0.89154000  0.74048000  1
  O  O27  1  0.91728000  0.45128000  0.36036000  1
  O  O28  1  0.93374000  0.60854000  0.74808000  1
  O  O29  1  0.20710000  0.94070000  0.85440000  1
  O  O30  1  0.19070000  0.95710000  0.35440000  1
  O  O31  1  0.85854000  0.68374000  0.24808000  1
  O  O32  1  0.70128000  0.66728000  0.86036000  1
  O  O33  1  0.14154000  0.10774000  0.24048000  1
