# generated using pymatgen
data_CoH7C9NO5
_symmetry_space_group_name_H-M   'P 1'
_cell_length_a   9.35820000
_cell_length_b   10.95300000
_cell_length_c   24.37000000
_cell_angle_alpha   90.00000000
_cell_angle_beta   90.00000000
_cell_angle_gamma   90.00000000
_symmetry_Int_Tables_number   1
_chemical_formula_structural   CoH7C9NO5
_chemical_formula_sum   'Co8 H56 C72 N8 O40'
_cell_volume   2497.93388530
_cell_formula_units_Z   8
loop_
 _symmetry_equiv_pos_site_id
 _symmetry_equiv_pos_as_xyz
  1  'x, y, z'
loop_
 _atom_site_type_symbol
 _atom_site_label
 _atom_site_symmetry_multiplicity
 _atom_site_fract_x
 _atom_site_fract_y
 _atom_site_fract_z
 _atom_site_occupancy
  Co  Co0  1  0.24265000  0.27013000  0.53838000  1
  Co  Co1  1  0.24265000  0.72987000  0.03838000  1
  Co  Co2  1  0.25735000  0.22987000  0.03838000  1
  Co  Co3  1  0.25735000  0.77013000  0.53838000  1
  Co  Co4  1  0.74265000  0.22987000  0.46162000  1
  Co  Co5  1  0.74265000  0.77013000  0.96162000  1
  Co  Co6  1  0.75735000  0.27013000  0.96162000  1
  Co  Co7  1  0.75735000  0.72987000  0.46162000  1
  H  H8  1  0.00300000  0.09040000  0.79730000  1
  H  H9  1  0.00300000  0.90960000  0.29730000  1
  H  H10  1  0.08730000  0.44680000  0.71940000  1
  H  H11  1  0.08730000  0.55320000  0.21940000  1
  H  H12  1  0.09950000  0.09830000  0.61780000  1
  H  H13  1  0.09950000  0.90170000  0.11780000  1
  H  H14  1  0.11550000  0.43460000  0.92850000  1
  H  H15  1  0.11550000  0.56540000  0.42850000  1
  H  H16  1  0.15020000  0.02000000  0.93270000  1
  H  H17  1  0.15020000  0.98000000  0.43270000  1
  H  H18  1  0.16190000  0.09210000  0.39320000  1
  H  H19  1  0.16190000  0.90790000  0.89320000  1
  H  H20  1  0.18360000  0.44290000  0.63350000  1
  H  H21  1  0.18360000  0.55710000  0.13350000  1
  H  H22  1  0.31640000  0.05710000  0.13350000  1
  H  H23  1  0.31640000  0.94290000  0.63350000  1
  H  H24  1  0.33810000  0.40790000  0.89320000  1
  H  H25  1  0.33810000  0.59210000  0.39320000  1
  H  H26  1  0.34980000  0.48000000  0.43270000  1
  H  H27  1  0.34980000  0.52000000  0.93270000  1
  H  H28  1  0.38450000  0.06540000  0.42850000  1
  H  H29  1  0.38450000  0.93460000  0.92850000  1
  H  H30  1  0.40050000  0.40170000  0.11780000  1
  H  H31  1  0.40050000  0.59830000  0.61780000  1
  H  H32  1  0.41270000  0.05320000  0.21940000  1
  H  H33  1  0.41270000  0.94680000  0.71940000  1
  H  H34  1  0.49700000  0.40960000  0.29730000  1
  H  H35  1  0.49700000  0.59040000  0.79730000  1
  H  H36  1  0.50300000  0.40960000  0.20270000  1
  H  H37  1  0.50300000  0.59040000  0.70270000  1
  H  H38  1  0.58730000  0.05320000  0.28060000  1
  H  H39  1  0.58730000  0.94680000  0.78060000  1
  H  H40  1  0.59950000  0.40170000  0.38220000  1
  H  H41  1  0.59950000  0.59830000  0.88220000  1
  H  H42  1  0.61550000  0.06540000  0.07150000  1
  H  H43  1  0.61550000  0.93460000  0.57150000  1
  H  H44  1  0.65020000  0.48000000  0.06730000  1
  H  H45  1  0.65020000  0.52000000  0.56730000  1
  H  H46  1  0.66190000  0.40790000  0.60680000  1
  H  H47  1  0.66190000  0.59210000  0.10680000  1
  H  H48  1  0.68360000  0.05710000  0.36650000  1
  H  H49  1  0.68360000  0.94290000  0.86650000  1
  H  H50  1  0.81640000  0.44290000  0.86650000  1
  H  H51  1  0.81640000  0.55710000  0.36650000  1
  H  H52  1  0.83810000  0.09210000  0.10680000  1
  H  H53  1  0.83810000  0.90790000  0.60680000  1
  H  H54  1  0.84980000  0.02000000  0.56730000  1
  H  H55  1  0.84980000  0.98000000  0.06730000  1
  H  H56  1  0.88450000  0.43460000  0.57150000  1
  H  H57  1  0.88450000  0.56540000  0.07150000  1
  H  H58  1  0.90050000  0.09830000  0.88220000  1
  H  H59  1  0.90050000  0.90170000  0.38220000  1
  H  H60  1  0.91270000  0.44680000  0.78060000  1
  H  H61  1  0.91270000  0.55320000  0.28060000  1
  H  H62  1  0.99700000  0.09040000  0.70270000  1
  H  H63  1  0.99700000  0.90960000  0.20270000  1
  C  C64  1  0.03230000  0.26870000  0.72213000  1
  C  C65  1  0.03230000  0.73130000  0.22213000  1
  C  C66  1  0.03550000  0.16320000  0.68982000  1
  C  C67  1  0.03550000  0.83680000  0.18982000  1
  C  C68  1  0.04140000  0.12770000  0.46047000  1
  C  C69  1  0.04140000  0.87230000  0.96047000  1
  C  C70  1  0.08850000  0.37420000  0.69965000  1
  C  C71  1  0.08850000  0.62580000  0.19965000  1
  C  C72  1  0.09650000  0.16930000  0.63871000  1
  C  C73  1  0.09650000  0.83070000  0.13871000  1
  C  C74  1  0.14630000  0.37100000  0.64787000  1
  C  C75  1  0.14630000  0.62900000  0.14787000  1
  C  C76  1  0.16430000  0.06770000  0.43143000  1
  C  C77  1  0.16430000  0.93230000  0.93143000  1
  C  C78  1  0.16450000  0.46410000  0.01039000  1
  C  C79  1  0.16450000  0.53590000  0.51039000  1
  C  C80  1  0.18770000  0.40390000  0.95416000  1
  C  C81  1  0.18770000  0.59610000  0.45416000  1
  C  C82  1  0.31230000  0.09610000  0.45416000  1
  C  C83  1  0.31230000  0.90390000  0.95416000  1
  C  C84  1  0.33550000  0.03590000  0.51039000  1
  C  C85  1  0.33550000  0.96410000  0.01039000  1
  C  C86  1  0.33570000  0.43230000  0.93143000  1
  C  C87  1  0.33570000  0.56770000  0.43143000  1
  C  C88  1  0.35370000  0.12900000  0.14787000  1
  C  C89  1  0.35370000  0.87100000  0.64787000  1
  C  C90  1  0.40350000  0.33070000  0.13871000  1
  C  C91  1  0.40350000  0.66930000  0.63871000  1
  C  C92  1  0.41150000  0.12580000  0.19965000  1
  C  C93  1  0.41150000  0.87420000  0.69965000  1
  C  C94  1  0.45860000  0.37230000  0.96047000  1
  C  C95  1  0.45860000  0.62770000  0.46047000  1
  C  C96  1  0.46450000  0.33680000  0.18982000  1
  C  C97  1  0.46450000  0.66320000  0.68982000  1
  C  C98  1  0.46770000  0.23130000  0.22213000  1
  C  C99  1  0.46770000  0.76870000  0.72213000  1
  C  C100  1  0.53230000  0.23130000  0.27787000  1
  C  C101  1  0.53230000  0.76870000  0.77787000  1
  C  C102  1  0.53550000  0.33680000  0.31018000  1
  C  C103  1  0.53550000  0.66320000  0.81018000  1
  C  C104  1  0.54140000  0.37230000  0.53953000  1
  C  C105  1  0.54140000  0.62770000  0.03953000  1
  C  C106  1  0.58850000  0.12580000  0.30035000  1
  C  C107  1  0.58850000  0.87420000  0.80035000  1
  C  C108  1  0.59650000  0.33070000  0.36129000  1
  C  C109  1  0.59650000  0.66930000  0.86129000  1
  C  C110  1  0.64630000  0.12900000  0.35213000  1
  C  C111  1  0.64630000  0.87100000  0.85213000  1
  C  C112  1  0.66430000  0.43230000  0.56857000  1
  C  C113  1  0.66430000  0.56770000  0.06857000  1
  C  C114  1  0.66450000  0.03590000  0.98961000  1
  C  C115  1  0.66450000  0.96410000  0.48961000  1
  C  C116  1  0.68770000  0.09610000  0.04584000  1
  C  C117  1  0.68770000  0.90390000  0.54584000  1
  C  C118  1  0.81230000  0.40390000  0.54584000  1
  C  C119  1  0.81230000  0.59610000  0.04584000  1
  C  C120  1  0.83550000  0.46410000  0.48961000  1
  C  C121  1  0.83550000  0.53590000  0.98961000  1
  C  C122  1  0.83570000  0.06770000  0.06857000  1
  C  C123  1  0.83570000  0.93230000  0.56857000  1
  C  C124  1  0.85370000  0.37100000  0.85213000  1
  C  C125  1  0.85370000  0.62900000  0.35213000  1
  C  C126  1  0.90350000  0.16930000  0.86129000  1
  C  C127  1  0.90350000  0.83070000  0.36129000  1
  C  C128  1  0.91150000  0.37420000  0.80035000  1
  C  C129  1  0.91150000  0.62580000  0.30035000  1
  C  C130  1  0.95860000  0.12770000  0.03953000  1
  C  C131  1  0.95860000  0.87230000  0.53953000  1
  C  C132  1  0.96450000  0.16320000  0.81018000  1
  C  C133  1  0.96450000  0.83680000  0.31018000  1
  C  C134  1  0.96770000  0.26870000  0.77787000  1
  C  C135  1  0.96770000  0.73130000  0.27787000  1
  N  N136  1  0.15190000  0.27090000  0.61714000  1
  N  N137  1  0.15190000  0.72910000  0.11714000  1
  N  N138  1  0.34810000  0.22910000  0.11714000  1
  N  N139  1  0.34810000  0.77090000  0.61714000  1
  N  N140  1  0.65190000  0.22910000  0.38286000  1
  N  N141  1  0.65190000  0.77090000  0.88286000  1
  N  N142  1  0.84810000  0.27090000  0.88286000  1
  N  N143  1  0.84810000  0.72910000  0.38286000  1
  O  O144  1  0.06160000  0.17235000  0.50837000  1
  O  O145  1  0.06160000  0.82765000  0.00837000  1
  O  O146  1  0.07690000  0.12920000  0.06333000  1
  O  O147  1  0.07690000  0.87080000  0.56333000  1
  O  O148  1  0.14610000  0.42306000  0.50924000  1
  O  O149  1  0.14610000  0.57694000  0.00924000  1
  O  O150  1  0.16500000  0.39840000  0.05252000  1
  O  O151  1  0.16500000  0.60160000  0.55252000  1
  O  O152  1  0.17500000  0.27388000  0.95786000  1
  O  O153  1  0.17500000  0.72612000  0.45786000  1
  O  O154  1  0.32500000  0.22612000  0.45786000  1
  O  O155  1  0.32500000  0.77388000  0.95786000  1
  O  O156  1  0.33500000  0.10160000  0.55252000  1
  O  O157  1  0.33500000  0.89840000  0.05252000  1
  O  O158  1  0.35390000  0.07694000  0.00924000  1
  O  O159  1  0.35390000  0.92306000  0.50924000  1
  O  O160  1  0.42310000  0.37080000  0.56333000  1
  O  O161  1  0.42310000  0.62920000  0.06333000  1
  O  O162  1  0.43840000  0.32765000  0.00837000  1
  O  O163  1  0.43840000  0.67235000  0.50837000  1
  O  O164  1  0.56160000  0.32765000  0.49163000  1
  O  O165  1  0.56160000  0.67235000  0.99163000  1
  O  O166  1  0.57690000  0.37080000  0.93667000  1
  O  O167  1  0.57690000  0.62920000  0.43667000  1
  O  O168  1  0.64610000  0.07694000  0.49076000  1
  O  O169  1  0.64610000  0.92306000  0.99076000  1
  O  O170  1  0.66500000  0.10160000  0.94748000  1
  O  O171  1  0.66500000  0.89840000  0.44748000  1
  O  O172  1  0.67500000  0.22612000  0.04214000  1
  O  O173  1  0.67500000  0.77388000  0.54214000  1
  O  O174  1  0.82500000  0.27388000  0.54214000  1
  O  O175  1  0.82500000  0.72612000  0.04214000  1
  O  O176  1  0.83500000  0.39840000  0.44748000  1
  O  O177  1  0.83500000  0.60160000  0.94748000  1
  O  O178  1  0.85390000  0.42306000  0.99076000  1
  O  O179  1  0.85390000  0.57694000  0.49076000  1
  O  O180  1  0.92310000  0.12920000  0.43667000  1
  O  O181  1  0.92310000  0.87080000  0.93667000  1
  O  O182  1  0.93840000  0.17235000  0.99163000  1
  O  O183  1  0.93840000  0.82765000  0.49163000  1
