# generated using pymatgen
data_ZnH10(C2N)4
_symmetry_space_group_name_H-M   'P 1'
_cell_length_a   14.64641492
_cell_length_b   14.64640000
_cell_length_c   14.64640000
_cell_angle_alpha   109.47120000
_cell_angle_beta   109.47124127
_cell_angle_gamma   109.47124127
_symmetry_Int_Tables_number   1
_chemical_formula_structural   ZnH10(C2N)4
_chemical_formula_sum   'Zn6 H60 C48 N24'
_cell_volume   2418.63934409
_cell_formula_units_Z   6
loop_
 _symmetry_equiv_pos_site_id
 _symmetry_equiv_pos_as_xyz
  1  'x, y, z'
loop_
 _atom_site_type_symbol
 _atom_site_label
 _atom_site_symmetry_multiplicity
 _atom_site_fract_x
 _atom_site_fract_y
 _atom_site_fract_z
 _atom_site_occupancy
  Zn  Zn0  1  0.25000000  0.75000000  0.50000000  1
  Zn  Zn1  1  0.50000000  0.25000000  0.75000000  1
  Zn  Zn2  1  0.25000000  0.50000000  0.75000000  1
  Zn  Zn3  1  0.75000000  0.50000000  0.25000000  1
  Zn  Zn4  1  0.50000000  0.75000000  0.25000000  1
  Zn  Zn5  1  0.75000000  0.25000000  0.50000000  1
  H  H6  1  0.48242000  0.74879000  0.52736000  1
  H  H7  1  0.50621000  0.88976000  0.55115000  1
  H  H8  1  0.61645000  0.11024000  0.66139000  1
  H  H9  1  0.73363000  0.25121000  0.77857000  1
  H  H10  1  0.13380000  0.66050000  0.23490000  1
  H  H11  1  0.47330000  0.33950000  0.57440000  1
  H  H12  1  0.33950000  0.57440000  0.47330000  1
  H  H13  1  0.76510000  0.42560000  0.89890000  1
  H  H14  1  0.37767000  0.07437000  0.51269000  1
  H  H15  1  0.29153000  0.91911000  0.43678000  1
  H  H16  1  0.33950000  0.47330000  0.57440000  1
  H  H17  1  0.86620000  0.52670000  0.10110000  1
  H  H18  1  0.99380000  0.49381000  0.23190000  1
  H  H19  1  0.56043000  0.47086000  0.81254000  1
  H  H20  1  0.23828000  0.00652000  0.50017000  1
  H  H21  1  0.47989000  0.53112000  0.75241000  1
  H  H22  1  0.08075000  0.51756000  0.37257000  1
  H  H23  1  0.42560000  0.89890000  0.76510000  1
  H  H24  1  0.52670000  0.10110000  0.86620000  1
  H  H25  1  0.92545000  0.43827000  0.30300000  1
  H  H26  1  0.51004000  0.54838000  0.89289000  1
  H  H27  1  0.10110000  0.86620000  0.52670000  1
  H  H28  1  0.23490000  0.13380000  0.66050000  1
  H  H29  1  0.08640000  0.36431000  0.52263000  1
  H  H30  1  0.69367000  0.62124000  0.13253000  1
  H  H31  1  0.42560000  0.76510000  0.89890000  1
  H  H32  1  0.66050000  0.23490000  0.13380000  1
  H  H33  1  0.14800000  0.71146000  0.62916000  1
  H  H34  1  0.76968000  0.75982000  0.26161000  1
  H  H35  1  0.48565000  0.22597000  0.97822000  1
  H  H36  1  0.44136000  0.31720000  0.93538000  1
  H  H37  1  0.93537000  0.31719000  0.44135000  1
  H  H38  1  0.97822000  0.22596000  0.48565000  1
  H  H39  1  0.26162000  0.75982000  0.76969000  1
  H  H40  1  0.62917000  0.71146000  0.14801000  1
  H  H41  1  0.13380000  0.23490000  0.66050000  1
  H  H42  1  0.89890000  0.76510000  0.42560000  1
  H  H43  1  0.13254000  0.62124000  0.69368000  1
  H  H44  1  0.52263000  0.36431000  0.08640000  1
  H  H45  1  0.52670000  0.86620000  0.10110000  1
  H  H46  1  0.66050000  0.13380000  0.23490000  1
  H  H47  1  0.89289000  0.54838000  0.51004000  1
  H  H48  1  0.30301000  0.43827000  0.92545000  1
  H  H49  1  0.76510000  0.89890000  0.42560000  1
  H  H50  1  0.86620000  0.10110000  0.52670000  1
  H  H51  1  0.37257000  0.51756000  0.08075000  1
  H  H52  1  0.75241000  0.53112000  0.47989000  1
  H  H53  1  0.50017000  0.00652000  0.23828000  1
  H  H54  1  0.81254000  0.47086000  0.56043000  1
  H  H55  1  0.23190000  0.49381000  0.99380000  1
  H  H56  1  0.10110000  0.52670000  0.86620000  1
  H  H57  1  0.57440000  0.47330000  0.33950000  1
  H  H58  1  0.43678000  0.91911000  0.29153000  1
  H  H59  1  0.51268000  0.07436000  0.37766000  1
  H  H60  1  0.47330000  0.57440000  0.33950000  1
  H  H61  1  0.89890000  0.42560000  0.76510000  1
  H  H62  1  0.23490000  0.66050000  0.13380000  1
  H  H63  1  0.57440000  0.33950000  0.47330000  1
  H  H64  1  0.56172000  0.81928000  0.47184000  1
  H  H65  1  0.74245000  0.18073000  0.65257000  1
  C  C66  1  0.48970000  0.80580000  0.48970000  1
  C  C67  1  0.38360000  0.75300000  0.38360000  1
  C  C68  1  0.68390000  0.19420000  0.68390000  1
  C  C69  1  0.63060000  0.24700000  0.63060000  1
  C  C70  1  0.20990000  0.68520000  0.26570000  1
  C  C71  1  0.52470000  0.31480000  0.58050000  1
  C  C72  1  0.31610000  0.00000000  0.51030000  1
  C  C73  1  0.31480000  0.58050000  0.52470000  1
  C  C74  1  0.73430000  0.41950000  0.94420000  1
  C  C75  1  0.36940000  0.00000000  0.61640000  1
  C  C76  1  0.31480000  0.52470000  0.58050000  1
  C  C77  1  0.79010000  0.47530000  0.05580000  1
  C  C78  1  0.41950000  0.94420000  0.73430000  1
  C  C79  1  0.47530000  0.05580000  0.79010000  1
  C  C80  1  0.48970000  0.48970000  0.80580000  1
  C  C81  1  1.00000000  0.51030000  0.31610000  1
  C  C82  1  0.38360000  0.38360000  0.75300000  1
  C  C83  1  0.00000000  0.61640000  0.36940000  1
  C  C84  1  0.24700000  0.63060000  0.63060000  1
  C  C85  1  0.61640000  0.36940000  0.00000000  1
  C  C86  1  0.05580000  0.79010000  0.47530000  1
  C  C87  1  0.26570000  0.20990000  0.68520000  1
  C  C88  1  0.20990000  0.26570000  0.68520000  1
  C  C89  1  0.94420000  0.73430000  0.41950000  1
  C  C90  1  0.19420000  0.68390000  0.68390000  1
  C  C91  1  0.51030000  0.31610000  1.00000000  1
  C  C92  1  0.68390000  0.68390000  0.19420000  1
  C  C93  1  0.00000000  0.31610000  0.51030000  1
  C  C94  1  0.41950000  0.73430000  0.94420000  1
  C  C95  1  0.68520000  0.26570000  0.20990000  1
  C  C96  1  0.47530000  0.79010000  0.05580000  1
  C  C97  1  0.68520000  0.20990000  0.26570000  1
  C  C98  1  0.63060000  0.63060000  0.24700000  1
  C  C99  1  0.00000000  0.36940000  0.61640000  1
  C  C100  1  0.36940000  0.61640000  1.00000000  1
  C  C101  1  0.75300000  0.38360000  0.38360000  1
  C  C102  1  0.31610000  0.51030000  1.00000000  1
  C  C103  1  0.80580000  0.48970000  0.48970000  1
  C  C104  1  0.73430000  0.94420000  0.41950000  1
  C  C105  1  0.79010000  0.05580000  0.47530000  1
  C  C106  1  0.05580000  0.47530000  0.79010000  1
  C  C107  1  0.58050000  0.52470000  0.31480000  1
  C  C108  1  0.61640000  0.00000000  0.36940000  1
  C  C109  1  0.52470000  0.58050000  0.31480000  1
  C  C110  1  0.94420000  0.41950000  0.73430000  1
  C  C111  1  0.51030000  0.00000000  0.31610000  1
  C  C112  1  0.26570000  0.68520000  0.20990000  1
  C  C113  1  0.58050000  0.31480000  0.52470000  1
  N  N114  1  0.28460000  0.72840000  0.37740000  1
  N  N115  1  0.55620000  0.27160000  0.64900000  1
  N  N116  1  0.35100000  0.90720000  0.62260000  1
  N  N117  1  0.44380000  0.09280000  0.71540000  1
  N  N118  1  0.27160000  0.64900000  0.55620000  1
  N  N119  1  0.62260000  0.35100000  0.90720000  1
  N  N120  1  0.09280000  0.71540000  0.44380000  1
  N  N121  1  0.37740000  0.28460000  0.72840000  1
  N  N122  1  0.27160000  0.55620000  0.64900000  1
  N  N123  1  0.71540000  0.44380000  0.09280000  1
  N  N124  1  0.28460000  0.37740000  0.72840000  1
  N  N125  1  0.90720000  0.62260000  0.35100000  1
  N  N126  1  0.35100000  0.62260000  0.90720000  1
  N  N127  1  0.72840000  0.37740000  0.28460000  1
  N  N128  1  0.09280000  0.44380000  0.71540000  1
  N  N129  1  0.64900000  0.55620000  0.27160000  1
  N  N130  1  0.44380000  0.71540000  0.09280000  1
  N  N131  1  0.72840000  0.28460000  0.37740000  1
  N  N132  1  0.55620000  0.64900000  0.27160000  1
  N  N133  1  0.90720000  0.35100000  0.62260000  1
  N  N134  1  0.62260000  0.90720000  0.35100000  1
  N  N135  1  0.71540000  0.09280000  0.44380000  1
  N  N136  1  0.37740000  0.72840000  0.28460000  1
  N  N137  1  0.64900000  0.27160000  0.55620000  1
