# generated using pymatgen
data_CuH12(CN2)12
_symmetry_space_group_name_H-M   'P 1'
_cell_length_a   8.11560000
_cell_length_b   8.65790000
_cell_length_c   20.38610000
_cell_angle_alpha   90.00000000
_cell_angle_beta   90.00000000
_cell_angle_gamma   91.19900000
_symmetry_Int_Tables_number   1
_chemical_formula_structural   CuH12(CN2)12
_chemical_formula_sum   'Cu2 H24 C24 N48'
_cell_volume   1432.09638792
_cell_formula_units_Z   2
loop_
 _symmetry_equiv_pos_site_id
 _symmetry_equiv_pos_as_xyz
  1  'x, y, z'
loop_
 _atom_site_type_symbol
 _atom_site_label
 _atom_site_symmetry_multiplicity
 _atom_site_fract_x
 _atom_site_fract_y
 _atom_site_fract_z
 _atom_site_occupancy
  Cu  Cu0  1  0.00000000  0.50000000  0.00000000  1
  Cu  Cu1  1  0.50000000  1.00000000  0.50000000  1
  H  H2  1  0.99350000  0.72100000  0.86310000  1
  H  H3  1  0.98750000  0.86450000  0.33670000  1
  H  H4  1  0.94870000  0.35040000  0.86000000  1
  H  H5  1  0.94020000  0.82720000  0.65100000  1
  H  H6  1  0.89240000  0.13200000  0.50300000  1
  H  H7  1  0.81760000  0.95500000  0.99160000  1
  H  H8  1  0.68240000  0.54500000  0.49160000  1
  H  H9  1  0.60760000  0.36800000  0.00300000  1
  H  H10  1  0.55980000  0.67280000  0.15100000  1
  H  H11  1  0.55130000  0.14960000  0.36000000  1
  H  H12  1  0.51250000  0.63550000  0.83670000  1
  H  H13  1  0.50650000  0.77900000  0.36310000  1
  H  H14  1  0.49350000  0.22100000  0.63690000  1
  H  H15  1  0.48750000  0.36450000  0.16330000  1
  H  H16  1  0.44870000  0.85040000  0.64000000  1
  H  H17  1  0.44020000  0.32720000  0.84900000  1
  H  H18  1  0.39240000  0.63200000  0.99700000  1
  H  H19  1  0.31760000  0.45500000  0.50840000  1
  H  H20  1  0.18240000  0.04500000  0.00840000  1
  H  H21  1  0.10760000  0.86800000  0.49700000  1
  H  H22  1  0.05980000  0.17280000  0.34900000  1
  H  H23  1  0.05130000  0.64960000  0.14000000  1
  H  H24  1  0.01250000  0.13550000  0.66330000  1
  H  H25  1  0.00650000  0.27900000  0.13690000  1
  C  C26  1  0.93720000  0.64170000  0.12980000  1
  C  C27  1  0.88220000  0.68880000  0.87020000  1
  C  C28  1  0.88100000  0.85790000  0.35600000  1
  C  C29  1  0.83220000  0.84560000  0.63530000  1
  C  C30  1  0.81270000  0.21050000  0.50030000  1
  C  C31  1  0.80300000  0.06350000  0.99380000  1
  C  C32  1  0.69700000  0.43650000  0.49380000  1
  C  C33  1  0.68730000  0.28950000  0.00030000  1
  C  C34  1  0.66780000  0.65440000  0.13530000  1
  C  C35  1  0.61900000  0.64210000  0.85600000  1
  C  C36  1  0.61780000  0.81120000  0.37020000  1
  C  C37  1  0.56280000  0.85830000  0.62980000  1
  C  C38  1  0.43720000  0.14170000  0.37020000  1
  C  C39  1  0.38220000  0.18880000  0.62980000  1
  C  C40  1  0.38100000  0.35790000  0.14400000  1
  C  C41  1  0.33220000  0.34560000  0.86470000  1
  C  C42  1  0.31270000  0.71050000  0.99970000  1
  C  C43  1  0.30300000  0.56350000  0.50620000  1
  C  C44  1  0.19700000  0.93650000  0.00620000  1
  C  C45  1  0.18730000  0.78950000  0.49970000  1
  C  C46  1  0.16780000  0.15440000  0.36470000  1
  C  C47  1  0.11900000  0.14210000  0.64400000  1
  C  C48  1  0.11780000  0.31120000  0.12980000  1
  C  C49  1  0.06280000  0.35830000  0.87020000  1
  N  N50  1  0.99690000  0.57260000  0.49930000  1
  N  N51  1  0.92080000  0.16680000  0.99300000  1
  N  N52  1  0.87500000  0.58720000  0.07590000  1
  N  N53  1  0.84700000  0.31130000  0.99810000  1
  N  N54  1  0.84480000  0.36600000  0.49810000  1
  N  N55  1  0.84420000  0.90280000  0.41480000  1
  N  N56  1  0.84310000  0.74050000  0.23290000  1
  N  N57  1  0.82550000  0.62650000  0.92370000  1
  N  N58  1  0.81220000  0.68560000  0.16920000  1
  N  N59  1  0.79630000  0.90450000  0.57850000  1
  N  N60  1  0.78940000  0.75620000  0.76320000  1
  N  N61  1  0.75860000  0.70100000  0.82590000  1
  N  N62  1  0.74140000  0.79900000  0.32590000  1
  N  N63  1  0.71060000  0.74380000  0.26320000  1
  N  N64  1  0.70370000  0.59550000  0.07850000  1
  N  N65  1  0.68780000  0.81440000  0.66920000  1
  N  N66  1  0.67450000  0.87350000  0.42370000  1
  N  N67  1  0.65690000  0.75950000  0.73290000  1
  N  N68  1  0.65580000  0.59720000  0.91480000  1
  N  N69  1  0.65520000  0.13400000  0.99810000  1
  N  N70  1  0.65300000  0.18870000  0.49810000  1
  N  N71  1  0.62500000  0.91280000  0.57590000  1
  N  N72  1  0.57920000  0.33320000  0.49300000  1
  N  N73  1  0.50310000  0.92740000  0.99930000  1
  N  N74  1  0.49690000  0.07260000  0.00070000  1
  N  N75  1  0.42080000  0.66680000  0.50700000  1
  N  N76  1  0.37500000  0.08720000  0.42410000  1
  N  N77  1  0.34700000  0.81130000  0.50190000  1
  N  N78  1  0.34480000  0.86600000  0.00190000  1
  N  N79  1  0.34420000  0.40280000  0.08520000  1
  N  N80  1  0.34310000  0.24050000  0.26710000  1
  N  N81  1  0.32550000  0.12650000  0.57630000  1
  N  N82  1  0.31220000  0.18560000  0.33080000  1
  N  N83  1  0.29630000  0.40450000  0.92150000  1
  N  N84  1  0.28940000  0.25620000  0.73680000  1
  N  N85  1  0.25860000  0.20100000  0.67410000  1
  N  N86  1  0.24140000  0.29900000  0.17410000  1
  N  N87  1  0.21060000  0.24380000  0.23680000  1
  N  N88  1  0.20370000  0.09550000  0.42150000  1
  N  N89  1  0.18780000  0.31440000  0.83080000  1
  N  N90  1  0.17450000  0.37350000  0.07630000  1
  N  N91  1  0.15690000  0.25950000  0.76710000  1
  N  N92  1  0.15580000  0.09720000  0.58520000  1
  N  N93  1  0.15520000  0.63400000  0.50190000  1
  N  N94  1  0.15300000  0.68870000  0.00190000  1
  N  N95  1  0.12500000  0.41280000  0.92410000  1
  N  N96  1  0.07920000  0.83320000  0.00700000  1
  N  N97  1  0.00310000  0.42740000  0.50070000  1
