# generated using pymatgen
data_Sn2H18C13O5
_symmetry_space_group_name_H-M   'P 1'
_cell_length_a   9.32340000
_cell_length_b   18.82300000
_cell_length_c   18.82300036
_cell_angle_alpha   117.32966496
_cell_angle_beta   99.50346703
_cell_angle_gamma   99.50340000
_symmetry_Int_Tables_number   1
_chemical_formula_structural   Sn2H18C13O5
_chemical_formula_sum   'Sn12 H108 C78 O30'
_cell_volume   2782.78299822
_cell_formula_units_Z   6
loop_
 _symmetry_equiv_pos_site_id
 _symmetry_equiv_pos_as_xyz
  1  'x, y, z'
loop_
 _atom_site_type_symbol
 _atom_site_label
 _atom_site_symmetry_multiplicity
 _atom_site_fract_x
 _atom_site_fract_y
 _atom_site_fract_z
 _atom_site_occupancy
  Sn  Sn0  1  0.67135000  0.06240000  0.55677000  1
  Sn  Sn1  1  0.56905000  0.99791000  0.33287000  1
  Sn  Sn2  1  0.39105000  0.50563000  0.06240000  1
  Sn  Sn3  1  0.88542000  0.55677000  0.49437000  1
  Sn  Sn4  1  0.76382000  0.33287000  0.33496000  1
  Sn  Sn5  1  0.42886000  0.66504000  0.99791000  1
  Sn  Sn6  1  0.57114000  0.33496000  0.00209000  1
  Sn  Sn7  1  0.23618000  0.66713000  0.66504000  1
  Sn  Sn8  1  0.11458000  0.44323000  0.50563000  1
  Sn  Sn9  1  0.60895000  0.49437000  0.93760000  1
  Sn  Sn10  1  0.43095000  0.00209000  0.66713000  1
  Sn  Sn11  1  0.32865000  0.93760000  0.44323000  1
  H  H12  1  0.89310000  0.14620000  0.86070000  1
  H  H13  1  0.88070000  0.62050000  0.84040000  1
  H  H14  1  0.61600000  0.19560000  0.56250000  1
  H  H15  1  0.41710000  0.80730000  0.35810000  1
  H  H16  1  0.56310000  0.72720000  0.49400000  1
  H  H17  1  0.35670000  0.05020000  0.28070000  1
  H  H18  1  0.47650000  0.59250000  0.39930000  1
  H  H19  1  0.17720000  0.78080000  0.08750000  1
  H  H20  1  0.46180000  0.12540000  0.36870000  1
  H  H21  1  0.75030000  0.38540000  0.64680000  1
  H  H22  1  0.68170000  0.56680000  0.57500000  1
  H  H23  1  0.25310000  0.28550000  0.14620000  1
  H  H24  1  0.75310000  0.22400000  0.64180000  1
  H  H25  1  0.10670000  0.42500000  0.99180000  1
  H  H26  1  0.92280000  0.39930000  0.80680000  1
  H  H27  1  0.73980000  0.78010000  0.62050000  1
  H  H28  1  0.54240000  0.34780000  0.40340000  1
  H  H29  1  0.18650000  0.37250000  0.02480000  1
  H  H30  1  0.93090000  0.49400000  0.76680000  1
  H  H31  1  0.73630000  0.93990000  0.57160000  1
  H  H32  1  0.49000000  0.25950000  0.31980000  1
  H  H33  1  0.39640000  0.30670000  0.21920000  1
  H  H34  1  0.83830000  0.02480000  0.65230000  1
  H  H35  1  0.81400000  0.65230000  0.62750000  1
  H  H36  1  0.13900000  0.59660000  0.94440000  1
  H  H37  1  0.59780000  0.27130000  0.40220000  1
  H  H38  1  0.83530000  0.57160000  0.63170000  1
  H  H39  1  0.51520000  0.10320000  0.28620000  1
  H  H40  1  0.17020000  0.68020000  0.93970000  1
  H  H41  1  0.47090000  0.58220000  0.22400000  1
  H  H42  1  0.63510000  0.73860000  0.38540000  1
  H  H43  1  0.96760000  0.86070000  0.71450000  1
  H  H44  1  0.04030000  0.15960000  0.78010000  1
  H  H45  1  0.20360000  0.36830000  0.93990000  1
  H  H46  1  0.07600000  0.71930000  0.76950000  1
  H  H47  1  0.88510000  0.99180000  0.56680000  1
  H  H48  1  0.19560000  0.59780000  0.86910000  1
  H  H49  1  0.09310000  0.63130000  0.75670000  1
  H  H50  1  0.30650000  0.23050000  0.94980000  1
  H  H51  1  0.10350000  0.35320000  0.73860000  1
  H  H52  1  0.57960000  0.63310000  0.19560000  1
  H  H53  1  0.94100000  0.35810000  0.55080000  1
  H  H54  1  0.08970000  0.91250000  0.69330000  1
  H  H55  1  0.67350000  0.86910000  0.27130000  1
  H  H56  1  0.22900000  0.71380000  0.81700000  1
  H  H57  1  0.60980000  0.55080000  0.19270000  1
  H  H58  1  0.05350000  0.43750000  0.63310000  1
  H  H59  1  0.16410000  0.23320000  0.72720000  1
  H  H60  1  0.80540000  0.94440000  0.34780000  1
  H  H61  1  0.33640000  0.24330000  0.87460000  1
  H  H62  1  0.88870000  0.64180000  0.41780000  1
  H  H63  1  0.88400000  0.80680000  0.40750000  1
  H  H64  1  0.58800000  0.81700000  0.10320000  1
  H  H65  1  0.23050000  0.06030000  0.74050000  1
  H  H66  1  0.76950000  0.93970000  0.25950000  1
  H  H67  1  0.41200000  0.18300000  0.89680000  1
  H  H68  1  0.11600000  0.19320000  0.59250000  1
  H  H69  1  0.11130000  0.35820000  0.58220000  1
  H  H70  1  0.66360000  0.75670000  0.12540000  1
  H  H71  1  0.19460000  0.05560000  0.65220000  1
  H  H72  1  0.83590000  0.76680000  0.27280000  1
  H  H73  1  0.94650000  0.56250000  0.36690000  1
  H  H74  1  0.39020000  0.44920000  0.80730000  1
  H  H75  1  0.77100000  0.28620000  0.18300000  1
  H  H76  1  0.32650000  0.13090000  0.72870000  1
  H  H77  1  0.91030000  0.08750000  0.30670000  1
  H  H78  1  0.05900000  0.64190000  0.44920000  1
  H  H79  1  0.42040000  0.36690000  0.80440000  1
  H  H80  1  0.89650000  0.64680000  0.26140000  1
  H  H81  1  0.69350000  0.76950000  0.05020000  1
  H  H82  1  0.90690000  0.36870000  0.24330000  1
  H  H83  1  0.80440000  0.40220000  0.13090000  1
  H  H84  1  0.11490000  0.00820000  0.43320000  1
  H  H85  1  0.92400000  0.28070000  0.23050000  1
  H  H86  1  0.79640000  0.63170000  0.06010000  1
  H  H87  1  0.95970000  0.84040000  0.21990000  1
  H  H88  1  0.03240000  0.13930000  0.28550000  1
  H  H89  1  0.36490000  0.26140000  0.61460000  1
  H  H90  1  0.52910000  0.41780000  0.77600000  1
  H  H91  1  0.82980000  0.31980000  0.06030000  1
  H  H92  1  0.48480000  0.89680000  0.71380000  1
  H  H93  1  0.16470000  0.42840000  0.36830000  1
  H  H94  1  0.40220000  0.72870000  0.59780000  1
  H  H95  1  0.86100000  0.40340000  0.05560000  1
  H  H96  1  0.18600000  0.34770000  0.37250000  1
  H  H97  1  0.16170000  0.97520000  0.34770000  1
  H  H98  1  0.60360000  0.69330000  0.78080000  1
  H  H99  1  0.51000000  0.74050000  0.68020000  1
  H  H100  1  0.26370000  0.06010000  0.42840000  1
  H  H101  1  0.06910000  0.50600000  0.23320000  1
  H  H102  1  0.81350000  0.62750000  0.97520000  1
  H  H103  1  0.45760000  0.65220000  0.59660000  1
  H  H104  1  0.26020000  0.21990000  0.37950000  1
  H  H105  1  0.07720000  0.60070000  0.19320000  1
  H  H106  1  0.89330000  0.57500000  0.00820000  1
  H  H107  1  0.24690000  0.77600000  0.35820000  1
  H  H108  1  0.74690000  0.71450000  0.85380000  1
  H  H109  1  0.31830000  0.43320000  0.42500000  1
  H  H110  1  0.24970000  0.61460000  0.35320000  1
  H  H111  1  0.53820000  0.87460000  0.63130000  1
  H  H112  1  0.82280000  0.21920000  0.91250000  1
  H  H113  1  0.52350000  0.40750000  0.60070000  1
  H  H114  1  0.64330000  0.94980000  0.71930000  1
  H  H115  1  0.43690000  0.27280000  0.50600000  1
  H  H116  1  0.58290000  0.19270000  0.64190000  1
  H  H117  1  0.38400000  0.80440000  0.43750000  1
  H  H118  1  0.11930000  0.37950000  0.15960000  1
  H  H119  1  0.10690000  0.85380000  0.13930000  1
  C  C120  1  0.80614000  0.57689000  0.79203000  1
  C  C121  1  0.17193000  0.81876000  0.14413000  1
  C  C122  1  0.86877000  0.30587000  0.83174000  1
  C  C123  1  0.65349000  0.18504000  0.60753000  1
  C  C124  1  0.73062000  0.43763000  0.67683000  1
  C  C125  1  0.40433000  0.54914000  0.34975000  1
  C  C126  1  0.90201000  0.23256000  0.82297000  1
  C  C127  1  0.83672000  0.50172000  0.74804000  1
  C  C128  1  0.33055000  0.40959000  0.23256000  1
  C  C129  1  0.24344000  0.65862000  0.12370000  1
  C  C130  1  0.43710000  0.47413000  0.30587000  1
  C  C131  1  0.32871000  0.87417000  0.19636000  1
  C  C132  1  0.94542000  0.34975000  0.80061000  1
  C  C133  1  0.46129000  0.08011000  0.31466000  1
  C  C134  1  0.66500000  0.75368000  0.50172000  1
  C  C135  1  0.35317000  0.32537000  0.18124000  1
  C  C136  1  0.77075000  0.78486000  0.57689000  1
  C  C137  1  0.79163000  0.59151000  0.59568000  1
  C  C138  1  0.19595000  0.40432000  0.99583000  1
  C  C139  1  0.57304000  0.29822000  0.36970000  1
  C  C140  1  0.79988000  0.99583000  0.59151000  1
  C  C141  1  0.01411000  0.20797000  0.78486000  1
  C  C142  1  0.58482000  0.46508000  0.34138000  1
  C  C143  1  0.70701000  0.76080000  0.43763000  1
  C  C144  1  0.20334000  0.63030000  0.92852000  1
  C  C145  1  0.05379000  0.32317000  0.76080000  1
  C  C146  1  0.45454000  0.32219000  0.12583000  1
  C  C147  1  0.92096000  0.82297000  0.59041000  1
  C  C148  1  0.08868000  0.25196000  0.75368000  1
  C  C149  1  0.53155000  0.57751000  0.18504000  1
  C  C150  1  0.02780000  0.85587000  0.67463000  1
  C  C151  1  0.14663000  0.68534000  0.76545000  1
  C  C152  1  0.85519000  0.80061000  0.45086000  1
  C  C153  1  0.88026000  0.12370000  0.46508000  1
  C  C154  1  0.72518000  0.92852000  0.29822000  1
  C  C155  1  0.96297000  0.83174000  0.52587000  1
  C  C156  1  0.13235000  0.80364000  0.67781000  1
  C  C157  1  0.38118000  0.23455000  0.91989000  1
  C  C158  1  0.04596000  0.39247000  0.57751000  1
  C  C159  1  0.95404000  0.60753000  0.42249000  1
  C  C160  1  0.61882000  0.76545000  0.08011000  1
  C  C161  1  0.86765000  0.19636000  0.32219000  1
  C  C162  1  0.03703000  0.16826000  0.47413000  1
  C  C163  1  0.27482000  0.07148000  0.70178000  1
  C  C164  1  0.11974000  0.87630000  0.53492000  1
  C  C165  1  0.14481000  0.19939000  0.54914000  1
  C  C166  1  0.85337000  0.31466000  0.23455000  1
  C  C167  1  0.97220000  0.14413000  0.32537000  1
  C  C168  1  0.46845000  0.42249000  0.81496000  1
  C  C169  1  0.91132000  0.74804000  0.24632000  1
  C  C170  1  0.07904000  0.17703000  0.40959000  1
  C  C171  1  0.54546000  0.67781000  0.87417000  1
  C  C172  1  0.94621000  0.67683000  0.23920000  1
  C  C173  1  0.79666000  0.36970000  0.07148000  1
  C  C174  1  0.29299000  0.23920000  0.56237000  1
  C  C175  1  0.41518000  0.53492000  0.65862000  1
  C  C176  1  0.98589000  0.79203000  0.21514000  1
  C  C177  1  0.20012000  0.00417000  0.40849000  1
  C  C178  1  0.42696000  0.70178000  0.63030000  1
  C  C179  1  0.80405000  0.59568000  0.00417000  1
  C  C180  1  0.20837000  0.40849000  0.40432000  1
  C  C181  1  0.22925000  0.21514000  0.42311000  1
  C  C182  1  0.64683000  0.67463000  0.81876000  1
  C  C183  1  0.33500000  0.24632000  0.49828000  1
  C  C184  1  0.53871000  0.91989000  0.68534000  1
  C  C185  1  0.05458000  0.65025000  0.19939000  1
  C  C186  1  0.67129000  0.12583000  0.80364000  1
  C  C187  1  0.56290000  0.52587000  0.69413000  1
  C  C188  1  0.75656000  0.34138000  0.87630000  1
  C  C189  1  0.66945000  0.59041000  0.76744000  1
  C  C190  1  0.16328000  0.49828000  0.25196000  1
  C  C191  1  0.09799000  0.76744000  0.17703000  1
  C  C192  1  0.59567000  0.45086000  0.65025000  1
  C  C193  1  0.26938000  0.56237000  0.32317000  1
  C  C194  1  0.34651000  0.81496000  0.39247000  1
  C  C195  1  0.13123000  0.69413000  0.16826000  1
  C  C196  1  0.82807000  0.18124000  0.85587000  1
  C  C197  1  0.19386000  0.42311000  0.20797000  1
  O  O198  1  0.36531000  0.89497000  0.27366000  1
  O  O199  1  0.54095000  0.99708000  0.43687000  1
  O  O200  1  0.22706000  0.58168000  0.09600000  1
  O  O201  1  0.64538000  0.51432000  0.41832000  1
  O  O202  1  0.34454000  0.70485000  0.11497000  1
  O  O203  1  0.41519000  0.90226000  0.16641000  1
  O  O204  1  0.63969000  0.41012000  0.29515000  1
  O  O205  1  0.86894000  0.09600000  0.51432000  1
  O  O206  1  0.77043000  0.11497000  0.41012000  1
  O  O207  1  0.47034000  0.37869000  0.10503000  1
  O  O208  1  0.51293000  0.26415000  0.09774000  1
  O  O209  1  0.89592000  0.43687000  0.43979000  1
  O  O210  1  0.45613000  0.56021000  0.99708000  1
  O  O211  1  0.09165000  0.72634000  0.62131000  1
  O  O212  1  0.75122000  0.16641000  0.26415000  1
  O  O213  1  0.24878000  0.83359000  0.73585000  1
  O  O214  1  0.90835000  0.27366000  0.37869000  1
  O  O215  1  0.54387000  0.43979000  0.00292000  1
  O  O216  1  0.10408000  0.56313000  0.56021000  1
  O  O217  1  0.48707000  0.73585000  0.90226000  1
  O  O218  1  0.52966000  0.62131000  0.89497000  1
  O  O219  1  0.22957000  0.88503000  0.58988000  1
  O  O220  1  0.13106000  0.90400000  0.48568000  1
  O  O221  1  0.36031000  0.58988000  0.70485000  1
  O  O222  1  0.58481000  0.09774000  0.83359000  1
  O  O223  1  0.65546000  0.29515000  0.88503000  1
  O  O224  1  0.35462000  0.48568000  0.58168000  1
  O  O225  1  0.77294000  0.41832000  0.90400000  1
  O  O226  1  0.45905000  0.00292000  0.56313000  1
  O  O227  1  0.63469000  0.10503000  0.72634000  1
