# generated using pymatgen
data_Cd3H62C72S2(N8O7)2
_symmetry_space_group_name_H-M   'P 1'
_cell_length_a   10.08000000
_cell_length_b   13.06300000
_cell_length_c   17.81500000
_cell_angle_alpha   79.02900000
_cell_angle_beta   86.32500000
_cell_angle_gamma   78.21100000
_symmetry_Int_Tables_number   1
_chemical_formula_structural   Cd3H62C72S2(N8O7)2
_chemical_formula_sum   'Cd3 H62 C72 S2 N16 O14'
_cell_volume   2253.56592217
_cell_formula_units_Z   1
loop_
 _symmetry_equiv_pos_site_id
 _symmetry_equiv_pos_as_xyz
  1  'x, y, z'
loop_
 _atom_site_type_symbol
 _atom_site_label
 _atom_site_symmetry_multiplicity
 _atom_site_fract_x
 _atom_site_fract_y
 _atom_site_fract_z
 _atom_site_occupancy
  Cd  Cd0  1  0.04291000  0.09656000  0.19901000  1
  Cd  Cd1  1  0.50000000  0.50000000  0.50000000  1
  Cd  Cd2  1  0.95709000  0.90344000  0.80099000  1
  H  H3  1  0.02670000  0.95520000  0.62900000  1
  H  H4  1  0.03030000  0.16650000  0.61590000  1
  H  H5  1  0.03320000  0.35100000  0.53500000  1
  H  H6  1  0.03580000  0.47250000  0.37250000  1
  H  H7  1  0.06060000  0.29610000  0.88200000  1
  H  H8  1  0.07260000  0.45080000  0.79600000  1
  H  H9  1  0.07380000  0.82590000  0.55410000  1
  H  H10  1  0.10820000  0.89300000  0.13390000  1
  H  H11  1  0.11060000  0.86380000  0.35950000  1
  H  H12  1  0.14860000  0.50050000  0.51980000  1
  H  H13  1  0.15050000  0.83130000  0.95150000  1
  H  H14  1  0.15380000  0.09940000  0.90990000  1
  H  H15  1  0.17100000  0.28110000  0.25660000  1
  H  H16  1  0.17570000  0.41850000  0.34050000  1
  H  H17  1  0.18620000  0.57860000  0.67150000  1
  H  H18  1  0.19670000  0.17710000  0.70480000  1
  H  H19  1  0.21310000  0.73550000  0.72320000  1
  H  H20  1  0.21520000  0.82370000  0.08700000  1
  H  H21  1  0.23770000  0.07000000  0.03770000  1
  H  H22  1  0.24360000  0.58530000  0.31550000  1
  H  H23  1  0.26070000  0.73820000  0.22790000  1
  H  H24  1  0.26220000  0.17300000  0.39550000  1
  H  H25  1  0.26850000  0.03590000  0.49820000  1
  H  H26  1  0.31720000  0.74270000  0.44050000  1
  H  H27  1  0.36860000  0.29270000  0.48580000  1
  H  H28  1  0.37170000  0.13880000  0.33350000  1
  H  H29  1  0.37670000  0.90950000  0.59140000  1
  H  H30  1  0.40680000  0.81240000  0.30380000  1
  H  H31  1  0.46540000  0.54270000  0.68690000  1
  H  H32  1  0.47080000  0.91770000  0.78960000  1
  H  H33  1  0.47650000  0.30260000  0.26780000  1
  H  H34  1  0.52350000  0.69740000  0.73220000  1
  H  H35  1  0.52920000  0.08230000  0.21040000  1
  H  H36  1  0.53460000  0.45730000  0.31310000  1
  H  H37  1  0.59320000  0.18760000  0.69620000  1
  H  H38  1  0.62330000  0.09050000  0.40860000  1
  H  H39  1  0.62830000  0.86120000  0.66650000  1
  H  H40  1  0.63140000  0.70730000  0.51420000  1
  H  H41  1  0.68280000  0.25730000  0.55950000  1
  H  H42  1  0.73150000  0.96410000  0.50180000  1
  H  H43  1  0.73780000  0.82700000  0.60450000  1
  H  H44  1  0.73930000  0.26180000  0.77210000  1
  H  H45  1  0.75640000  0.41470000  0.68450000  1
  H  H46  1  0.76230000  0.93000000  0.96230000  1
  H  H47  1  0.78480000  0.17630000  0.91300000  1
  H  H48  1  0.78690000  0.26450000  0.27680000  1
  H  H49  1  0.80330000  0.82290000  0.29520000  1
  H  H50  1  0.81380000  0.42140000  0.32850000  1
  H  H51  1  0.82430000  0.58150000  0.65950000  1
  H  H52  1  0.82900000  0.71890000  0.74340000  1
  H  H53  1  0.84620000  0.90060000  0.09010000  1
  H  H54  1  0.84950000  0.16870000  0.04850000  1
  H  H55  1  0.85140000  0.49950000  0.48020000  1
  H  H56  1  0.88940000  0.13620000  0.64050000  1
  H  H57  1  0.89180000  0.10700000  0.86610000  1
  H  H58  1  0.92620000  0.17410000  0.44590000  1
  H  H59  1  0.92740000  0.54920000  0.20400000  1
  H  H60  1  0.93940000  0.70390000  0.11800000  1
  H  H61  1  0.96420000  0.52750000  0.62750000  1
  H  H62  1  0.96680000  0.64900000  0.46500000  1
  H  H63  1  0.96970000  0.83350000  0.38410000  1
  H  H64  1  0.97330000  0.04480000  0.37100000  1
  C  C65  1  0.00290000  0.67940000  0.15630000  1
  C  C66  1  0.00610000  0.41258000  0.79128000  1
  C  C67  1  0.01550000  0.97430000  0.57644000  1
  C  C68  1  0.02870000  0.92140000  0.45511000  1
  C  C69  1  0.04380000  0.89650000  0.53131000  1
  C  C70  1  0.05540000  0.83910000  0.40317000  1
  C  C71  1  0.05850000  0.65010000  0.46684000  1
  C  C72  1  0.06250000  0.85200000  0.96989000  1
  C  C73  1  0.07850000  0.29640000  0.26790000  1
  C  C74  1  0.08350000  0.45266000  0.32679000  1
  C  C75  1  0.08430000  0.55246000  0.26822000  1
  C  C76  1  0.10180000  0.10980000  0.95379000  1
  C  C77  1  0.10400000  0.73500000  0.15990000  1
  C  C78  1  0.11830000  0.62600000  0.69187000  1
  C  C79  1  0.12270000  0.83340000  0.10710000  1
  C  C80  1  0.13220000  0.71240000  0.72134000  1
  C  C81  1  0.14760000  0.09490000  0.02437000  1
  C  C82  1  0.16100000  0.56820000  0.49702000  1
  C  C83  1  0.18390000  0.60860000  0.27530000  1
  C  C84  1  0.19470000  0.69990000  0.22260000  1
  C  C85  1  0.20460000  0.97550000  0.77211000  1
  C  C86  1  0.25220000  0.70060000  0.45380000  1
  C  C87  1  0.28570000  0.14320000  0.71556000  1
  C  C88  1  0.30550000  0.01010000  0.23183000  1
  C  C89  1  0.31220000  0.03540000  0.75197000  1
  C  C90  1  0.35840000  0.16180000  0.38258000  1
  C  C91  1  0.36270000  0.02220000  0.49873000  1
  C  C92  1  0.38710000  0.19870000  0.69581000  1
  C  C93  1  0.40360000  0.31460000  0.43711000  1
  C  C94  1  0.42770000  0.94550000  0.55403000  1
  C  C95  1  0.43260000  0.07870000  0.44151000  1
  C  C96  1  0.44880000  0.95490000  0.25199000  1
  C  C97  1  0.44890000  0.98890000  0.76658000  1
  C  C98  1  0.46210000  0.31810000  0.31688000  1
  C  C99  1  0.47620000  0.84980000  0.28920000  1
  C  C100  1  0.49400000  0.40480000  0.34267000  1
  C  C101  1  0.50600000  0.59520000  0.65733000  1
  C  C102  1  0.52380000  0.15020000  0.71080000  1
  C  C103  1  0.53790000  0.68190000  0.68312000  1
  C  C104  1  0.55110000  0.01110000  0.23342000  1
  C  C105  1  0.55120000  0.04510000  0.74801000  1
  C  C106  1  0.56740000  0.92130000  0.55849000  1
  C  C107  1  0.57230000  0.05450000  0.44597000  1
  C  C108  1  0.59640000  0.68540000  0.56289000  1
  C  C109  1  0.61290000  0.80130000  0.30419000  1
  C  C110  1  0.63730000  0.97780000  0.50127000  1
  C  C111  1  0.64160000  0.83820000  0.61742000  1
  C  C112  1  0.68780000  0.96460000  0.24803000  1
  C  C113  1  0.69450000  0.98990000  0.76817000  1
  C  C114  1  0.71430000  0.85680000  0.28444000  1
  C  C115  1  0.74780000  0.29940000  0.54620000  1
  C  C116  1  0.79540000  0.02450000  0.22789000  1
  C  C117  1  0.80530000  0.30010000  0.77740000  1
  C  C118  1  0.81610000  0.39140000  0.72470000  1
  C  C119  1  0.83900000  0.43180000  0.50298000  1
  C  C120  1  0.85240000  0.90510000  0.97563000  1
  C  C121  1  0.86780000  0.28760000  0.27866000  1
  C  C122  1  0.87730000  0.16660000  0.89290000  1
  C  C123  1  0.88170000  0.37400000  0.30813000  1
  C  C124  1  0.89600000  0.26500000  0.84010000  1
  C  C125  1  0.89820000  0.89020000  0.04621000  1
  C  C126  1  0.91570000  0.44754000  0.73178000  1
  C  C127  1  0.91650000  0.54734000  0.67321000  1
  C  C128  1  0.92150000  0.70360000  0.73210000  1
  C  C129  1  0.93750000  0.14800000  0.03011000  1
  C  C130  1  0.94150000  0.34990000  0.53316000  1
  C  C131  1  0.94460000  0.16090000  0.59683000  1
  C  C132  1  0.95620000  0.10350000  0.46869000  1
  C  C133  1  0.97130000  0.07860000  0.54489000  1
  C  C134  1  0.98450000  0.02570000  0.42356000  1
  C  C135  1  0.99390000  0.58742000  0.20872000  1
  C  C136  1  0.99710000  0.32060000  0.84370000  1
  S  S137  1  0.34497000  0.33415000  0.65077000  1
  S  S138  1  0.65503000  0.66585000  0.34923000  1
  N  N139  1  0.00650000  0.76020000  0.74817000  1
  N  N140  1  0.02150000  0.37552000  0.30102000  1
  N  N141  1  0.03180000  0.85760000  0.04225000  1
  N  N142  1  0.04480000  0.12110000  0.07355000  1
  N  N143  1  0.12290000  0.73439000  0.43996000  1
  N  N144  1  0.28050000  0.59880000  0.48925000  1
  N  N145  1  0.40670000  0.26240000  0.37715000  1
  N  N146  1  0.45670000  0.40010000  0.41649000  1
  N  N147  1  0.54330000  0.59990000  0.58351000  1
  N  N148  1  0.59330000  0.73760000  0.62285000  1
  N  N149  1  0.71950000  0.40120000  0.51075000  1
  N  N150  1  0.87710000  0.26561000  0.56004000  1
  N  N151  1  0.95520000  0.87890000  0.92645000  1
  N  N152  1  0.96820000  0.14240000  0.95775000  1
  N  N153  1  0.97850000  0.62448000  0.69898000  1
  N  N154  1  0.99350000  0.23980000  0.25183000  1
  O  O155  1  0.08420000  0.02237000  0.75746000  1
  O  O156  1  0.21270000  0.95778000  0.24743000  1
  O  O157  1  0.22770000  0.34037000  0.60888000  1
  O  O158  1  0.23130000  0.88182000  0.80544000  1
  O  O159  1  0.28150000  0.10453000  0.20342000  1
  O  O160  1  0.32510000  0.39309000  0.70982000  1
  O  O161  1  0.45790000  0.35669000  0.60061000  1
  O  O162  1  0.54210000  0.64331000  0.39939000  1
  O  O163  1  0.67490000  0.60691000  0.29018000  1
  O  O164  1  0.71850000  0.89547000  0.79658000  1
  O  O165  1  0.76870000  0.11818000  0.19456000  1
  O  O166  1  0.77230000  0.65963000  0.39112000  1
  O  O167  1  0.78730000  0.04222000  0.75257000  1
  O  O168  1  0.91580000  0.97763000  0.24254000  1
