# generated using pymatgen
data_MnPO4
_symmetry_space_group_name_H-M   'P 1'
_cell_length_a   9.05000000
_cell_length_b   14.95800000
_cell_length_c   14.95800000
_cell_angle_alpha   90.00000000
_cell_angle_beta   90.00000000
_cell_angle_gamma   90.00000000
_symmetry_Int_Tables_number   1
_chemical_formula_structural   MnPO4
_chemical_formula_sum   'Mn16 P16 O64'
_cell_volume   2024.86296420
_cell_formula_units_Z   16
loop_
 _symmetry_equiv_pos_site_id
 _symmetry_equiv_pos_as_xyz
  1  'x, y, z'
loop_
 _atom_site_type_symbol
 _atom_site_label
 _atom_site_symmetry_multiplicity
 _atom_site_fract_x
 _atom_site_fract_y
 _atom_site_fract_z
 _atom_site_occupancy
  Mn  Mn0  1  0.87762000  0.00618000  0.37164000  1
  Mn  Mn1  1  0.55507000  0.01454000  0.87611000  1
  Mn  Mn2  1  0.05507000  0.12389000  0.01454000  1
  Mn  Mn3  1  0.38196000  0.12751000  0.51370000  1
  Mn  Mn4  1  0.07369000  0.36823000  0.49411000  1
  Mn  Mn5  1  0.37762000  0.37164000  0.99382000  1
  Mn  Mn6  1  0.88196000  0.48630000  0.12751000  1
  Mn  Mn7  1  0.57369000  0.49411000  0.63177000  1
  Mn  Mn8  1  0.57369000  0.50589000  0.36823000  1
  Mn  Mn9  1  0.88196000  0.51370000  0.87249000  1
  Mn  Mn10  1  0.37762000  0.62836000  0.00618000  1
  Mn  Mn11  1  0.07369000  0.63177000  0.50589000  1
  Mn  Mn12  1  0.38196000  0.87249000  0.48630000  1
  Mn  Mn13  1  0.05507000  0.87611000  0.98546000  1
  Mn  Mn14  1  0.55507000  0.98546000  0.12389000  1
  Mn  Mn15  1  0.87762000  0.99382000  0.62836000  1
  P  P16  1  0.91957000  0.00207000  0.84789000  1
  P  P17  1  0.51161000  0.01171000  0.34486000  1
  P  P18  1  0.01818000  0.15023000  0.50496000  1
  P  P19  1  0.41957000  0.15211000  0.00207000  1
  P  P20  1  0.01161000  0.34486000  0.98829000  1
  P  P21  1  0.43652000  0.34618000  0.48575000  1
  P  P22  1  0.93652000  0.48575000  0.65382000  1
  P  P23  1  0.51818000  0.49504000  0.15023000  1
  P  P24  1  0.51818000  0.50496000  0.84977000  1
  P  P25  1  0.93652000  0.51425000  0.34618000  1
  P  P26  1  0.43652000  0.65382000  0.51425000  1
  P  P27  1  0.01161000  0.65514000  0.01171000  1
  P  P28  1  0.41957000  0.84789000  0.99793000  1
  P  P29  1  0.01818000  0.84977000  0.49504000  1
  P  P30  1  0.51161000  0.98829000  0.65514000  1
  P  P31  1  0.91957000  0.99793000  0.15211000  1
  O  O32  1  0.97140000  0.00960000  0.75070000  1
  O  O33  1  0.46440000  0.01880000  0.24630000  1
  O  O34  1  0.77000000  0.04730000  0.85880000  1
  O  O35  1  0.66730000  0.04800000  0.35760000  1
  O  O36  1  0.03740000  0.04830000  0.90430000  1
  O  O37  1  0.40160000  0.06980000  0.39420000  1
  O  O38  1  0.49740000  0.08520000  0.62460000  1
  O  O39  1  0.53740000  0.09570000  0.04830000  1
  O  O40  1  0.91910000  0.09680000  0.12560000  1
  O  O41  1  0.01880000  0.10370000  0.41420000  1
  O  O42  1  0.90070000  0.11060000  0.56620000  1
  O  O43  1  0.41910000  0.12560000  0.90320000  1
  O  O44  1  0.27000000  0.14120000  0.04730000  1
  O  O45  1  0.16980000  0.14740000  0.54900000  1
  O  O46  1  0.96440000  0.24630000  0.98120000  1
  O  O47  1  0.96670000  0.24690000  0.49040000  1
  O  O48  1  0.47140000  0.24930000  0.00960000  1
  O  O49  1  0.47750000  0.24940000  0.50620000  1
  O  O50  1  0.28210000  0.35260000  0.44710000  1
  O  O51  1  0.16730000  0.35760000  0.95200000  1
  O  O52  1  0.99740000  0.37540000  0.08520000  1
  O  O53  1  0.54480000  0.38050000  0.41410000  1
  O  O54  1  0.90160000  0.39420000  0.93020000  1
  O  O55  1  0.45120000  0.40070000  0.57060000  1
  O  O56  1  0.04480000  0.41410000  0.61950000  1
  O  O57  1  0.51880000  0.41420000  0.89630000  1
  O  O58  1  0.95120000  0.42940000  0.40070000  1
  O  O59  1  0.40070000  0.43380000  0.11060000  1
  O  O60  1  0.78210000  0.44710000  0.64740000  1
  O  O61  1  0.66980000  0.45100000  0.14740000  1
  O  O62  1  0.46670000  0.49040000  0.75310000  1
  O  O63  1  0.97750000  0.49380000  0.24940000  1
  O  O64  1  0.97750000  0.50620000  0.75060000  1
  O  O65  1  0.46670000  0.50960000  0.24690000  1
  O  O66  1  0.66980000  0.54900000  0.85260000  1
  O  O67  1  0.78210000  0.55290000  0.35260000  1
  O  O68  1  0.40070000  0.56620000  0.88940000  1
  O  O69  1  0.95120000  0.57060000  0.59930000  1
  O  O70  1  0.51880000  0.58580000  0.10370000  1
  O  O71  1  0.04480000  0.58590000  0.38050000  1
  O  O72  1  0.45120000  0.59930000  0.42940000  1
  O  O73  1  0.90160000  0.60580000  0.06980000  1
  O  O74  1  0.54480000  0.61950000  0.58590000  1
  O  O75  1  0.99740000  0.62460000  0.91480000  1
  O  O76  1  0.16730000  0.64240000  0.04800000  1
  O  O77  1  0.28210000  0.64740000  0.55290000  1
  O  O78  1  0.47750000  0.75060000  0.49380000  1
  O  O79  1  0.47140000  0.75070000  0.99040000  1
  O  O80  1  0.96670000  0.75310000  0.50960000  1
  O  O81  1  0.96440000  0.75370000  0.01880000  1
  O  O82  1  0.16980000  0.85260000  0.45100000  1
  O  O83  1  0.27000000  0.85880000  0.95270000  1
  O  O84  1  0.41910000  0.87440000  0.09680000  1
  O  O85  1  0.90070000  0.88940000  0.43380000  1
  O  O86  1  0.01880000  0.89630000  0.58580000  1
  O  O87  1  0.91910000  0.90320000  0.87440000  1
  O  O88  1  0.53740000  0.90430000  0.95170000  1
  O  O89  1  0.49740000  0.91480000  0.37540000  1
  O  O90  1  0.40160000  0.93020000  0.60580000  1
  O  O91  1  0.03740000  0.95170000  0.09570000  1
  O  O92  1  0.66730000  0.95200000  0.64240000  1
  O  O93  1  0.77000000  0.95270000  0.14120000  1
  O  O94  1  0.46440000  0.98120000  0.75370000  1
  O  O95  1  0.97140000  0.99040000  0.24930000  1
