# generated using pymatgen
data_PrH6(C4O3)3
_symmetry_space_group_name_H-M   'P 1'
_cell_length_a   6.79510000
_cell_length_b   13.11300000
_cell_length_c   16.29888731
_cell_angle_alpha   113.71989844
_cell_angle_beta   100.58400834
_cell_angle_gamma   90.00000000
_symmetry_Int_Tables_number   1
_chemical_formula_structural   PrH6(C4O3)3
_chemical_formula_sum   'Pr4 H24 C48 O36'
_cell_volume   1302.57894748
_cell_formula_units_Z   4
loop_
 _symmetry_equiv_pos_site_id
 _symmetry_equiv_pos_as_xyz
  1  'x, y, z'
loop_
 _atom_site_type_symbol
 _atom_site_label
 _atom_site_symmetry_multiplicity
 _atom_site_fract_x
 _atom_site_fract_y
 _atom_site_fract_z
 _atom_site_occupancy
  Pr  Pr0  1  0.77205000  0.30096000  0.19654000  1
  Pr  Pr1  1  0.72795000  0.10442000  0.80346000  1
  Pr  Pr2  1  0.27205000  0.89558000  0.19654000  1
  Pr  Pr3  1  0.22795000  0.69904000  0.80346000  1
  H  H4  1  0.99550000  0.77930000  0.34580000  1
  H  H5  1  0.86230000  0.46570000  0.53180000  1
  H  H6  1  0.85820000  0.50920000  0.86340000  1
  H  H7  1  0.80920000  0.04590000  0.61160000  1
  H  H8  1  0.77990000  0.08150000  0.43840000  1
  H  H9  1  0.75020000  0.33130000  0.81240000  1
  H  H10  1  0.74980000  0.51890000  0.18760000  1
  H  H11  1  0.72010000  0.64310000  0.56160000  1
  H  H12  1  0.69080000  0.43430000  0.38840000  1
  H  H13  1  0.64180000  0.64580000  0.13660000  1
  H  H14  1  0.63770000  0.93390000  0.46820000  1
  H  H15  1  0.50450000  0.43350000  0.65420000  1
  H  H16  1  0.49550000  0.56650000  0.34580000  1
  H  H17  1  0.36230000  0.06610000  0.53180000  1
  H  H18  1  0.35820000  0.35420000  0.86340000  1
  H  H19  1  0.30920000  0.56570000  0.61160000  1
  H  H20  1  0.27990000  0.35690000  0.43840000  1
  H  H21  1  0.25020000  0.48110000  0.81240000  1
  H  H22  1  0.24980000  0.66870000  0.18760000  1
  H  H23  1  0.22010000  0.91850000  0.56160000  1
  H  H24  1  0.19080000  0.95410000  0.38840000  1
  H  H25  1  0.14180000  0.49080000  0.13660000  1
  H  H26  1  0.13770000  0.53430000  0.46820000  1
  H  H27  1  0.00450000  0.22070000  0.65420000  1
  C  C28  1  0.99760000  0.39650000  0.00740000  1
  C  C29  1  0.98710000  0.29150000  0.02160000  1
  C  C30  1  0.97720000  0.58410000  0.33020000  1
  C  C31  1  0.91740000  0.34130000  0.57560000  1
  C  C32  1  0.91470000  0.50550000  0.91860000  1
  C  C33  1  0.90890000  0.40270000  0.92420000  1
  C  C34  1  0.88900000  0.22530000  0.54680000  1
  C  C35  1  0.86720000  0.82850000  0.70200000  1
  C  C36  1  0.84800000  0.38860000  0.51280000  1
  C  C37  1  0.79780000  0.15840000  0.45680000  1
  C  C38  1  0.76720000  0.81010000  0.60620000  1
  C  C39  1  0.75920000  0.32160000  0.42380000  1
  C  C40  1  0.74080000  0.89780000  0.57620000  1
  C  C41  1  0.73280000  0.20390000  0.39380000  1
  C  C42  1  0.70220000  0.70160000  0.54320000  1
  C  C43  1  0.65200000  0.87580000  0.48720000  1
  C  C44  1  0.63280000  0.12650000  0.29800000  1
  C  C45  1  0.61100000  0.67850000  0.45320000  1
  C  C46  1  0.59110000  0.47850000  0.07580000  1
  C  C47  1  0.58530000  0.58690000  0.08140000  1
  C  C48  1  0.58260000  0.76570000  0.42440000  1
  C  C49  1  0.52280000  0.25390000  0.66980000  1
  C  C50  1  0.51290000  0.26990000  0.97840000  1
  C  C51  1  0.50240000  0.38910000  0.99260000  1
  C  C52  1  0.49760000  0.61090000  0.00740000  1
  C  C53  1  0.48710000  0.73010000  0.02160000  1
  C  C54  1  0.47720000  0.74610000  0.33020000  1
  C  C55  1  0.41740000  0.23430000  0.57560000  1
  C  C56  1  0.41470000  0.41310000  0.91860000  1
  C  C57  1  0.40890000  0.52150000  0.92420000  1
  C  C58  1  0.38900000  0.32150000  0.54680000  1
  C  C59  1  0.36720000  0.87350000  0.70200000  1
  C  C60  1  0.34800000  0.12420000  0.51280000  1
  C  C61  1  0.29780000  0.29840000  0.45680000  1
  C  C62  1  0.26720000  0.79610000  0.60620000  1
  C  C63  1  0.25920000  0.10220000  0.42380000  1
  C  C64  1  0.24080000  0.67840000  0.57620000  1
  C  C65  1  0.23280000  0.18990000  0.39380000  1
  C  C66  1  0.20220000  0.84160000  0.54320000  1
  C  C67  1  0.15200000  0.61140000  0.48720000  1
  C  C68  1  0.13280000  0.17150000  0.29800000  1
  C  C69  1  0.11100000  0.77470000  0.45320000  1
  C  C70  1  0.09110000  0.59730000  0.07580000  1
  C  C71  1  0.08530000  0.49450000  0.08140000  1
  C  C72  1  0.08260000  0.65870000  0.42440000  1
  C  C73  1  0.02280000  0.41590000  0.66980000  1
  C  C74  1  0.01290000  0.70850000  0.97840000  1
  C  C75  1  0.00240000  0.60350000  0.99260000  1
  O  O76  1  0.97320000  0.69899000  0.89558000  1
  O  O77  1  0.96310000  0.47994000  0.30648000  1
  O  O78  1  0.94660000  0.17427000  0.60434000  1
  O  O79  1  0.93870000  0.19847000  0.95514000  1
  O  O80  1  0.93270000  0.74434000  0.71428000  1
  O  O81  1  0.90200000  0.63023000  0.27746000  1
  O  O82  1  0.88230000  0.92490000  0.76540000  1
  O  O83  1  0.81310000  0.31162000  0.85084000  1
  O  O84  1  0.80970000  0.00474000  0.63848000  1
  O  O85  1  0.69030000  0.36626000  0.36152000  1
  O  O86  1  0.68690000  0.46078000  0.14916000  1
  O  O87  1  0.61770000  0.15950000  0.23460000  1
  O  O88  1  0.59800000  0.35277000  0.72254000  1
  O  O89  1  0.56730000  0.03006000  0.28572000  1
  O  O90  1  0.56130000  0.24333000  0.04486000  1
  O  O91  1  0.55340000  0.56993000  0.39566000  1
  O  O92  1  0.53690000  0.17346000  0.69352000  1
  O  O93  1  0.52680000  0.80341000  0.10442000  1
  O  O94  1  0.47320000  0.19659000  0.89558000  1
  O  O95  1  0.46310000  0.82654000  0.30648000  1
  O  O96  1  0.44660000  0.43007000  0.60434000  1
  O  O97  1  0.43870000  0.75667000  0.95514000  1
  O  O98  1  0.43270000  0.96994000  0.71428000  1
  O  O99  1  0.40200000  0.64723000  0.27746000  1
  O  O100  1  0.38230000  0.84050000  0.76540000  1
  O  O101  1  0.31310000  0.53922000  0.85084000  1
  O  O102  1  0.30970000  0.63374000  0.63848000  1
  O  O103  1  0.19030000  0.99526000  0.36152000  1
  O  O104  1  0.18690000  0.68838000  0.14916000  1
  O  O105  1  0.11770000  0.07510000  0.23460000  1
  O  O106  1  0.09800000  0.36977000  0.72254000  1
  O  O107  1  0.06730000  0.25566000  0.28572000  1
  O  O108  1  0.06130000  0.80153000  0.04486000  1
  O  O109  1  0.05340000  0.82573000  0.39566000  1
  O  O110  1  0.03690000  0.52006000  0.69352000  1
  O  O111  1  0.02680000  0.30101000  0.10442000  1
