# generated using pymatgen
data_KBiH32(C27O4)2
_symmetry_space_group_name_H-M   'P 1'
_cell_length_a   11.90480000
_cell_length_b   17.10842570
_cell_length_c   37.73840000
_cell_angle_alpha   98.68527459
_cell_angle_beta   90.00000000
_cell_angle_gamma   110.36027618
_symmetry_Int_Tables_number   1
_chemical_formula_structural   KBiH32(C27O4)2
_chemical_formula_sum   'K4 Bi4 H128 C216 O32'
_cell_volume   7111.96877837
_cell_formula_units_Z   4
loop_
 _symmetry_equiv_pos_site_id
 _symmetry_equiv_pos_as_xyz
  1  'x, y, z'
loop_
 _atom_site_type_symbol
 _atom_site_label
 _atom_site_symmetry_multiplicity
 _atom_site_fract_x
 _atom_site_fract_y
 _atom_site_fract_z
 _atom_site_occupancy
  Bi  Bi0  1  0.43737000  0.50636000  0.69507000  1
  Bi  Bi1  1  0.06899000  0.50636000  0.19507000  1
  Bi  Bi2  1  0.56263000  0.49364000  0.30493000  1
  Bi  Bi3  1  0.93101000  0.49364000  0.80493000  1
  C  C4  1  0.83900000  0.98920000  0.45718000  1
  C  C5  1  0.15020000  0.98920000  0.95718000  1
  C  C6  1  0.97445000  0.96470000  0.91277000  1
  C  C7  1  0.99025000  0.96470000  0.41277000  1
  C  C8  1  0.78425000  0.94110000  0.48688000  1
  C  C9  1  0.15685000  0.94110000  0.98688000  1
  C  C10  1  0.88017000  0.93814000  0.42780000  1
  C  C11  1  0.05797000  0.93814000  0.92780000  1
  C  C12  1  0.77680000  0.93160000  0.04341000  1
  C  C13  1  0.15480000  0.93160000  0.54341000  1
  C  C14  1  0.66921000  0.92902000  0.49770000  1
  C  C15  1  0.25981000  0.92902000  0.99770000  1
  C  C16  1  0.76892000  0.92724000  0.11007000  1
  C  C17  1  0.15832000  0.92724000  0.61007000  1
  C  C18  1  0.89215000  0.91470000  0.88595000  1
  C  C19  1  0.02255000  0.91470000  0.38595000  1
  C  C20  1  0.84983000  0.90046000  0.50277000  1
  C  C21  1  0.05063000  0.90046000  0.00277000  1
  C  C22  1  0.77389000  0.88858000  0.07532000  1
  C  C23  1  0.11469000  0.88858000  0.57532000  1
  C  C24  1  0.75932000  0.88384000  0.13902000  1
  C  C25  1  0.12452000  0.88384000  0.63902000  1
  C  C26  1  0.68811000  0.88062000  0.01238000  1
  C  C27  1  0.19251000  0.88062000  0.51238000  1
  C  C28  1  0.62080000  0.87860000  0.52341000  1
  C  C29  1  0.25780000  0.87860000  0.02341000  1
  C  C30  1  0.71464000  0.87828000  0.97668000  1
  C  C31  1  0.16364000  0.87828000  0.47668000  1
  C  C32  1  0.80340000  0.85680000  0.41468000  1
  C  C33  1  0.05340000  0.85680000  0.91468000  1
  C  C34  1  0.80251000  0.85182000  0.52859000  1
  C  C35  1  0.04931000  0.85182000  0.02859000  1
  C  C36  1  0.68692000  0.83964000  0.53931000  1
  C  C37  1  0.15272000  0.83964000  0.03931000  1
  C  C38  1  0.89032000  0.83404000  0.87225000  1
  C  C39  1  0.94372000  0.83404000  0.37225000  1
  C  C40  1  0.62850000  0.83160000  0.94963000  1
  C  C41  1  0.20310000  0.83160000  0.44963000  1
  C  C42  1  0.57360000  0.83140000  0.02025000  1
  C  C43  1  0.25780000  0.83140000  0.52025000  1
  C  C44  1  0.83330000  0.80560000  0.38735000  1
  C  C45  1  0.97230000  0.80560000  0.88735000  1
  C  C46  1  0.76315000  0.80450000  0.07000000  1
  C  C47  1  0.04135000  0.80450000  0.57000000  1
  C  C48  1  0.74990000  0.79940000  0.13391000  1
  C  C49  1  0.04950000  0.79940000  0.63391000  1
  C  C50  1  0.70100000  0.79200000  0.59806000  1
  C  C51  1  0.09100000  0.79200000  0.09806000  1
  C  C52  1  0.69530000  0.79020000  0.83476000  1
  C  C53  1  0.09490000  0.79020000  0.33476000  1
  C  C54  1  0.51300000  0.78640000  0.95761000  1
  C  C55  1  0.27340000  0.78640000  0.45761000  1
  C  C56  1  0.48790000  0.78540000  0.99357000  1
  C  C57  1  0.29750000  0.78540000  0.49357000  1
  C  C58  1  0.63589000  0.78318000  0.56636000  1
  C  C59  1  0.14729000  0.78318000  0.06636000  1
  C  C60  1  0.80554000  0.77968000  0.84243000  1
  C  C61  1  0.97414000  0.77968000  0.34243000  1
  C  C62  1  0.66170000  0.76700000  0.19204000  1
  C  C63  1  0.10530000  0.76700000  0.69204000  1
  C  C64  1  0.75200000  0.76000000  0.09885000  1
  C  C65  1  0.00800000  0.76000000  0.59885000  1
  C  C66  1  0.73060000  0.75120000  0.16413000  1
  C  C67  1  0.02060000  0.75120000  0.66413000  1
  C  C68  1  0.41343000  0.74026000  0.92937000  1
  C  C69  1  0.32683000  0.74026000  0.42937000  1
  C  C70  1  0.62013000  0.73986000  0.80657000  1
  C  C71  1  0.11973000  0.73986000  0.30657000  1
  C  C72  1  0.44120000  0.73980000  0.43579000  1
  C  C73  1  0.29860000  0.73980000  0.93579000  1
  C  C74  1  0.65690000  0.73620000  0.62217000  1
  C  C75  1  0.07930000  0.73620000  0.12217000  1
  C  C76  1  0.52470000  0.71920000  0.55945000  1
  C  C77  1  0.19450000  0.71920000  0.05945000  1
  C  C78  1  0.63587000  0.71794000  0.21919000  1
  C  C79  1  0.08207000  0.71794000  0.71919000  1
  C  C80  1  0.83220000  0.71520000  0.82010000  1
  C  C81  1  0.88300000  0.71520000  0.32010000  1
  C  C82  1  0.49350000  0.69820000  0.41064000  1
  C  C83  1  0.20470000  0.69820000  0.91064000  1
  C  C84  1  0.43310000  0.69720000  0.89707000  1
  C  C85  1  0.26410000  0.69720000  0.39707000  1
  C  C86  1  0.77260000  0.68500000  0.16404000  1
  C  C87  1  0.91240000  0.68500000  0.66404000  1
  C  C88  1  0.64754000  0.67708000  0.78469000  1
  C  C89  1  0.02954000  0.67708000  0.28469000  1
  C  C90  1  0.54935000  0.67150000  0.61464000  1
  C  C91  1  0.12215000  0.67150000  0.11464000  1
  C  C92  1  0.75430000  0.66500000  0.79195000  1
  C  C93  1  0.91070000  0.66500000  0.29195000  1
  C  C94  1  0.48210000  0.66260000  0.58337000  1
  C  C95  1  0.18050000  0.66260000  0.08337000  1
  C  C96  1  0.33770000  0.65420000  0.87189000  1
  C  C97  1  0.31650000  0.65420000  0.37189000  1
  C  C98  1  0.43074000  0.65408000  0.37828000  1
  C  C99  1  0.22334000  0.65408000  0.87828000  1
  C  C100  1  0.67532000  0.65024000  0.21826000  1
  C  C101  1  0.97492000  0.65024000  0.71826000  1
  C  C102  1  0.74680000  0.63520000  0.19097000  1
  C  C103  1  0.88840000  0.63520000  0.69097000  1
  C  C104  1  0.56649000  0.62398000  0.75361000  1
  C  C105  1  0.05749000  0.62398000  0.25361000  1
  C  C106  1  0.49084000  0.60848000  0.35284000  1
  C  C107  1  0.11764000  0.60848000  0.85284000  1
  C  C108  1  0.50362000  0.60804000  0.63982000  1
  C  C109  1  0.10442000  0.60804000  0.13982000  1
  C  C110  1  0.63933000  0.59306000  0.24614000  1
  C  C111  1  0.95373000  0.59306000  0.74614000  1
  C  C112  1  0.36067000  0.40694000  0.75386000  1
  C  C113  1  0.04627000  0.40694000  0.25386000  1
  C  C114  1  0.49638000  0.39196000  0.36018000  1
  C  C115  1  0.89558000  0.39196000  0.86018000  1
  C  C116  1  0.50916000  0.39152000  0.64716000  1
  C  C117  1  0.88236000  0.39152000  0.14716000  1
  C  C118  1  0.43351000  0.37602000  0.24639000  1
  C  C119  1  0.94251000  0.37602000  0.74639000  1
  C  C120  1  0.25320000  0.36480000  0.80903000  1
  C  C121  1  0.11160000  0.36480000  0.30903000  1
  C  C122  1  0.32468000  0.34976000  0.78174000  1
  C  C123  1  0.02508000  0.34976000  0.28174000  1
  C  C124  1  0.56926000  0.34592000  0.62172000  1
  C  C125  1  0.77666000  0.34592000  0.12172000  1
  C  C126  1  0.66230000  0.34580000  0.12811000  1
  C  C127  1  0.68350000  0.34580000  0.62811000  1
  C  C128  1  0.51790000  0.33740000  0.41663000  1
  C  C129  1  0.81950000  0.33740000  0.91663000  1
  C  C130  1  0.24570000  0.33500000  0.20805000  1
  C  C131  1  0.08930000  0.33500000  0.70805000  1
  C  C132  1  0.45065000  0.32850000  0.38536000  1
  C  C133  1  0.87785000  0.32850000  0.88536000  1
  C  C134  1  0.35246000  0.32292000  0.21531000  1
  C  C135  1  0.97046000  0.32292000  0.71531000  1
  C  C136  1  0.22740000  0.31500000  0.83596000  1
  C  C137  1  0.08760000  0.31500000  0.33596000  1
  C  C138  1  0.56690000  0.30280000  0.10293000  1
  C  C139  1  0.73590000  0.30280000  0.60293000  1
  C  C140  1  0.50650000  0.30180000  0.58936000  1
  C  C141  1  0.79530000  0.30180000  0.08936000  1
  C  C142  1  0.16780000  0.28480000  0.17990000  1
  C  C143  1  0.11700000  0.28480000  0.67990000  1
  C  C144  1  0.36413000  0.28206000  0.78081000  1
  C  C145  1  0.91793000  0.28206000  0.28081000  1
  C  C146  1  0.47530000  0.28080000  0.44055000  1
  C  C147  1  0.80550000  0.28080000  0.94055000  1
  C  C148  1  0.34310000  0.26380000  0.37783000  1
  C  C149  1  0.92070000  0.26380000  0.87783000  1
  C  C150  1  0.55880000  0.26020000  0.56421000  1
  C  C151  1  0.70140000  0.26020000  0.06421000  1
  C  C152  1  0.37987000  0.26014000  0.19343000  1
  C  C153  1  0.88027000  0.26014000  0.69343000  1
  C  C154  1  0.58657000  0.25974000  0.07063000  1
  C  C155  1  0.67317000  0.25974000  0.57063000  1
  C  C156  1  0.26940000  0.24880000  0.83587000  1
  C  C157  1  0.97940000  0.24880000  0.33587000  1
  C  C158  1  0.24800000  0.24000000  0.90115000  1
  C  C159  1  0.99200000  0.24000000  0.40115000  1
  C  C160  1  0.33830000  0.23300000  0.80796000  1
  C  C161  1  0.89470000  0.23300000  0.30796000  1
  C  C162  1  0.19446000  0.22032000  0.15757000  1
  C  C163  1  0.02586000  0.22032000  0.65757000  1
  C  C164  1  0.36411000  0.21682000  0.43364000  1
  C  C165  1  0.85271000  0.21682000  0.93364000  1
  C  C166  1  0.51210000  0.21460000  0.00643000  1
  C  C167  1  0.70250000  0.21460000  0.50643000  1
  C  C168  1  0.48700000  0.21360000  0.04239000  1
  C  C169  1  0.72660000  0.21360000  0.54239000  1
  C  C170  1  0.30470000  0.20980000  0.16524000  1
  C  C171  1  0.90510000  0.20980000  0.66524000  1
  C  C172  1  0.29900000  0.20800000  0.40194000  1
  C  C173  1  0.90900000  0.20800000  0.90194000  1
  C  C174  1  0.25010000  0.20060000  0.86609000  1
  C  C175  1  0.95050000  0.20060000  0.36609000  1
  C  C176  1  0.23685000  0.19550000  0.93000000  1
  C  C177  1  0.95865000  0.19550000  0.43000000  1
  C  C178  1  0.16670000  0.19440000  0.61265000  1
  C  C179  1  0.02770000  0.19440000  0.11265000  1
  C  C180  1  0.42640000  0.16860000  0.97975000  1
  C  C181  1  0.74220000  0.16860000  0.47975000  1
  C  C182  1  0.37150000  0.16840000  0.05037000  1
  C  C183  1  0.79690000  0.16840000  0.55037000  1
  C  C184  1  0.10968000  0.16596000  0.12775000  1
  C  C185  1  0.05628000  0.16596000  0.62775000  1
  C  C186  1  0.31308000  0.16036000  0.46069000  1
  C  C187  1  0.84728000  0.16036000  0.96069000  1
  C  C188  1  0.19749000  0.14818000  0.47141000  1
  C  C189  1  0.95069000  0.14818000  0.97141000  1
  C  C190  1  0.19660000  0.14320000  0.58532000  1
  C  C191  1  0.94660000  0.14320000  0.08532000  1
  C  C192  1  0.28536000  0.12172000  0.02332000  1
  C  C193  1  0.83636000  0.12172000  0.52332000  1
  C  C194  1  0.37920000  0.12140000  0.47659000  1
  C  C195  1  0.74220000  0.12140000  0.97659000  1
  C  C196  1  0.31189000  0.11938000  0.98762000  1
  C  C197  1  0.80749000  0.11938000  0.48762000  1
  C  C198  1  0.24068000  0.11616000  0.86098000  1
  C  C199  1  0.87548000  0.11616000  0.36098000  1
  C  C200  1  0.22611000  0.11142000  0.92468000  1
  C  C201  1  0.88531000  0.11142000  0.42468000  1
  C  C202  1  0.15017000  0.09954000  0.49723000  1
  C  C203  1  0.94937000  0.09954000  0.99723000  1
  C  C204  1  0.10785000  0.08530000  0.11405000  1
  C  C205  1  0.97745000  0.08530000  0.61405000  1
  C  C206  1  0.23108000  0.07276000  0.88993000  1
  C  C207  1  0.84168000  0.07276000  0.38993000  1
  C  C208  1  0.33079000  0.07098000  0.50230000  1
  C  C209  1  0.74019000  0.07098000  0.00230000  1
  C  C210  1  0.22320000  0.06840000  0.95659000  1
  C  C211  1  0.84520000  0.06840000  0.45659000  1
  C  C212  1  0.11983000  0.06186000  0.57220000  1
  C  C213  1  0.94203000  0.06186000  0.07220000  1
  C  C214  1  0.21575000  0.05890000  0.51312000  1
  C  C215  1  0.84315000  0.05890000  0.01312000  1
  C  C216  1  0.02555000  0.03530000  0.08723000  1
  C  C217  1  0.00975000  0.03530000  0.58723000  1
  C  C218  1  0.16100000  0.01080000  0.54282000  1
  C  C219  1  0.84980000  0.01080000  0.04282000  1
  H  H220  1  0.77210000  0.98420000  0.11420000  1
  H  H221  1  0.21210000  0.98420000  0.61420000  1
  H  H222  1  0.95430000  0.98020000  0.57860000  1
  H  H223  1  0.02590000  0.98020000  0.07860000  1
  H  H224  1  0.62260000  0.95580000  0.48730000  1
  H  H225  1  0.33320000  0.95580000  0.98730000  1
  H  H226  1  0.83560000  0.93520000  0.87660000  1
  H  H227  1  0.09960000  0.93520000  0.37660000  1
  H  H228  1  0.75930000  0.91240000  0.16270000  1
  H  H229  1  0.15310000  0.91240000  0.66270000  1
  H  H230  1  0.79330000  0.90920000  0.97060000  1
  H  H231  1  0.11590000  0.90920000  0.47060000  1
  H  H232  1  0.92850000  0.90660000  0.49550000  1
  H  H233  1  0.97810000  0.90660000  0.99550000  1
  H  H234  1  0.54120000  0.87080000  0.53020000  1
  H  H235  1  0.32960000  0.87080000  0.03020000  1
  H  H236  1  0.77640000  0.83640000  0.60330000  1
  H  H237  1  0.06000000  0.83640000  0.10330000  1
  H  H238  1  0.72780000  0.83560000  0.42480000  1
  H  H239  1  0.10780000  0.83560000  0.92480000  1
  H  H240  1  0.67380000  0.83260000  0.84940000  1
  H  H241  1  0.15880000  0.83260000  0.34940000  1
  H  H242  1  0.64900000  0.83060000  0.92530000  1
  H  H243  1  0.18160000  0.83060000  0.42530000  1
  H  H244  1  0.55440000  0.82980000  0.04460000  1
  H  H245  1  0.27540000  0.82980000  0.54460000  1
  H  H246  1  0.84960000  0.82600000  0.53930000  1
  H  H247  1  0.97640000  0.82600000  0.03930000  1
  H  H248  1  0.63170000  0.81180000  0.19260000  1
  H  H249  1  0.18010000  0.81180000  0.69260000  1
  H  H250  1  0.76340000  0.77640000  0.04630000  1
  H  H251  1  0.01300000  0.77640000  0.54630000  1
  H  H252  1  0.48440000  0.76880000  0.45790000  1
  H  H253  1  0.28440000  0.76880000  0.95790000  1
  H  H254  1  0.41040000  0.75220000  0.99970000  1
  H  H255  1  0.34180000  0.75220000  0.49970000  1
  H  H256  1  0.77790000  0.75040000  0.37880000  1
  H  H257  1  0.97250000  0.75040000  0.87880000  1
  H  H258  1  0.54700000  0.74820000  0.80180000  1
  H  H259  1  0.20120000  0.74820000  0.30180000  1
  H  H260  1  0.70170000  0.74320000  0.64400000  1
  H  H261  1  0.04150000  0.74320000  0.14400000  1
  H  H262  1  0.59090000  0.73080000  0.23860000  1
  H  H263  1  0.13990000  0.73080000  0.73860000  1
  H  H264  1  0.47750000  0.71420000  0.53830000  1
  H  H265  1  0.23670000  0.71420000  0.03830000  1
  H  H266  1  0.80130000  0.70640000  0.32450000  1
  H  H267  1  0.90510000  0.70640000  0.82450000  1
  H  H268  1  0.74590000  0.70240000  0.09450000  1
  H  H269  1  0.95650000  0.70240000  0.59450000  1
  H  H270  1  0.57280000  0.69980000  0.41530000  1
  H  H271  1  0.12700000  0.69980000  0.91530000  1
  H  H272  1  0.51120000  0.69680000  0.89220000  1
  H  H273  1  0.18560000  0.69680000  0.39220000  1
  H  H274  1  0.82000000  0.67340000  0.14510000  1
  H  H275  1  0.85340000  0.67340000  0.64510000  1
  H  H276  1  0.35150000  0.62460000  0.84990000  1
  H  H277  1  0.27310000  0.62460000  0.34990000  1
  H  H278  1  0.77360000  0.62160000  0.77730000  1
  H  H279  1  0.84800000  0.62160000  0.27730000  1
  H  H280  1  0.40700000  0.61780000  0.57830000  1
  H  H281  1  0.21080000  0.61780000  0.07830000  1
  H  H282  1  0.77820000  0.59120000  0.19070000  1
  H  H283  1  0.81300000  0.59120000  0.69070000  1
  H  H284  1  0.22180000  0.40880000  0.80930000  1
  H  H285  1  0.18700000  0.40880000  0.30930000  1
  H  H286  1  0.59300000  0.38220000  0.42170000  1
  H  H287  1  0.78920000  0.38220000  0.92170000  1
  H  H288  1  0.22640000  0.37840000  0.22270000  1
  H  H289  1  0.15200000  0.37840000  0.72270000  1
  H  H290  1  0.64850000  0.37540000  0.15010000  1
  H  H291  1  0.72690000  0.37540000  0.65010000  1
  H  H292  1  0.18000000  0.32660000  0.85490000  1
  H  H293  1  0.14660000  0.32660000  0.35490000  1
  H  H294  1  0.48880000  0.30320000  0.10780000  1
  H  H295  1  0.81440000  0.30320000  0.60780000  1
  H  H296  1  0.42720000  0.30020000  0.58470000  1
  H  H297  1  0.87300000  0.30020000  0.08470000  1
  H  H298  1  0.25410000  0.29760000  0.90550000  1
  H  H299  1  0.04350000  0.29760000  0.40550000  1
  H  H300  1  0.19870000  0.29360000  0.67550000  1
  H  H301  1  0.09490000  0.29360000  0.17550000  1
  H  H302  1  0.52250000  0.28580000  0.46170000  1
  H  H303  1  0.76330000  0.28580000  0.96170000  1
  H  H304  1  0.40910000  0.26920000  0.76140000  1
  H  H305  1  0.86010000  0.26920000  0.26140000  1
  H  H306  1  0.29830000  0.25680000  0.35600000  1
  H  H307  1  0.95850000  0.25680000  0.85600000  1
  H  H308  1  0.45300000  0.25180000  0.19820000  1
  H  H309  1  0.79880000  0.25180000  0.69820000  1
  H  H310  1  0.22210000  0.24960000  0.62120000  1
  H  H311  1  0.02750000  0.24960000  0.12120000  1
  H  H312  1  0.58960000  0.24780000  0.00030000  1
  H  H313  1  0.65820000  0.24780000  0.50030000  1
  H  H314  1  0.51560000  0.23120000  0.54210000  1
  H  H315  1  0.71560000  0.23120000  0.04210000  1
  H  H316  1  0.23660000  0.22360000  0.95370000  1
  H  H317  1  0.98700000  0.22360000  0.45370000  1
  H  H318  1  0.36830000  0.18820000  0.80740000  1
  H  H319  1  0.81990000  0.18820000  0.30740000  1
  H  H320  1  0.15040000  0.17400000  0.46070000  1
  H  H321  1  0.02360000  0.17400000  0.96070000  1
  H  H322  1  0.44560000  0.17020000  0.95540000  1
  H  H323  1  0.72460000  0.17020000  0.45540000  1
  H  H324  1  0.35100000  0.16940000  0.07470000  1
  H  H325  1  0.81840000  0.16940000  0.57470000  1
  H  H326  1  0.32620000  0.16740000  0.15060000  1
  H  H327  1  0.84120000  0.16740000  0.65060000  1
  H  H328  1  0.27220000  0.16440000  0.57520000  1
  H  H329  1  0.89220000  0.16440000  0.07520000  1
  H  H330  1  0.22360000  0.16360000  0.39670000  1
  H  H331  1  0.94000000  0.16360000  0.89670000  1
  H  H332  1  0.45880000  0.12920000  0.46980000  1
  H  H333  1  0.67040000  0.12920000  0.96980000  1
  H  H334  1  0.07150000  0.09340000  0.50450000  1
  H  H335  1  0.02190000  0.09340000  0.00450000  1
  H  H336  1  0.20670000  0.09080000  0.02940000  1
  H  H337  1  0.88410000  0.09080000  0.52940000  1
  H  H338  1  0.24070000  0.08760000  0.83730000  1
  H  H339  1  0.84690000  0.08760000  0.33730000  1
  H  H340  1  0.16440000  0.06480000  0.12340000  1
  H  H341  1  0.90040000  0.06480000  0.62340000  1
  H  H342  1  0.37740000  0.04420000  0.51270000  1
  H  H343  1  0.66680000  0.04420000  0.01270000  1
  H  H344  1  0.04570000  0.01980000  0.42140000  1
  H  H345  1  0.97410000  0.01980000  0.92140000  1
  H  H346  1  0.22790000  0.01580000  0.88580000  1
  H  H347  1  0.78790000  0.01580000  0.38580000  1
  K  K348  1  0.34691000  0.59166000  0.26589000  1
  K  K349  1  0.24475000  0.59166000  0.76589000  1
  K  K350  1  0.65309000  0.40834000  0.73411000  1
  K  K351  1  0.75525000  0.40834000  0.23411000  1
  O  O352  1  0.47740000  0.64060000  0.74393000  1
  O  O353  1  0.16320000  0.64060000  0.24393000  1
  O  O354  1  0.60181000  0.62702000  0.35521000  1
  O  O355  1  0.02521000  0.62702000  0.85521000  1
  O  O356  1  0.55896000  0.62112000  0.66968000  1
  O  O357  1  0.06216000  0.62112000  0.16968000  1
  O  O358  1  0.58392000  0.61364000  0.27230000  1
  O  O359  1  0.02972000  0.61364000  0.77230000  1
  O  O360  1  0.59101000  0.56162000  0.73655000  1
  O  O361  1  0.97061000  0.56162000  0.23655000  1
  O  O362  1  0.42421000  0.54902000  0.32851000  1
  O  O363  1  0.12481000  0.54902000  0.82851000  1
  O  O364  1  0.41269000  0.54358000  0.63035000  1
  O  O365  1  0.13089000  0.54358000  0.13035000  1
  O  O366  1  0.66524000  0.52788000  0.24245000  1
  O  O367  1  0.86264000  0.52788000  0.74245000  1
  O  O368  1  0.33476000  0.47212000  0.75755000  1
  O  O369  1  0.13736000  0.47212000  0.25755000  1
  O  O370  1  0.58731000  0.45642000  0.36965000  1
  O  O371  1  0.86911000  0.45642000  0.86965000  1
  O  O372  1  0.57579000  0.45098000  0.67149000  1
  O  O373  1  0.87519000  0.45098000  0.17149000  1
  O  O374  1  0.40899000  0.43838000  0.26345000  1
  O  O375  1  0.02939000  0.43838000  0.76345000  1
  O  O376  1  0.41608000  0.38636000  0.72770000  1
  O  O377  1  0.97028000  0.38636000  0.22770000  1
  O  O378  1  0.44104000  0.37888000  0.33032000  1
  O  O379  1  0.93784000  0.37888000  0.83032000  1
  O  O380  1  0.39819000  0.37298000  0.64479000  1
  O  O381  1  0.97479000  0.37298000  0.14479000  1
  O  O382  1  0.52260000  0.35940000  0.25607000  1
  O  O383  1  0.83680000  0.35940000  0.75607000  1
