# generated using pymatgen
data_Cu6H64C121(NO14)2
_symmetry_space_group_name_H-M   'P 1'
_cell_length_a   13.83250000
_cell_length_b   21.36777528
_cell_length_c   31.25581346
_cell_angle_alpha   85.89279959
_cell_angle_beta   77.21584375
_cell_angle_gamma   71.11458028
_symmetry_Int_Tables_number   1
_chemical_formula_structural   Cu6H64C121(NO14)2
_chemical_formula_sum   'Cu12 H128 C242 N4 O56'
_cell_volume   8524.27283407
_cell_formula_units_Z   2
loop_
 _symmetry_equiv_pos_site_id
 _symmetry_equiv_pos_as_xyz
  1  'x, y, z'
loop_
 _atom_site_type_symbol
 _atom_site_label
 _atom_site_symmetry_multiplicity
 _atom_site_fract_x
 _atom_site_fract_y
 _atom_site_fract_z
 _atom_site_occupancy
  C  C0  1  0.48330000  0.59380000  0.44960000  1
  C  C1  1  0.02670000  0.90620000  0.05040000  1
  C  C2  1  0.80460000  0.15880000  0.24400000  1
  C  C3  1  0.70740000  0.34120000  0.25600000  1
  C  C4  1  0.48020000  0.64600000  0.41420000  1
  C  C5  1  0.04040000  0.85400000  0.08580000  1
  C  C6  1  0.61491000  0.08120000  0.71498000  1
  C  C7  1  0.91109000  0.41880000  0.78502000  1
  C  C8  1  0.49218000  0.72700000  0.33004000  1
  C  C9  1  0.04922000  0.77300000  0.16996000  1
  C  C10  1  0.75664000  0.73254000  0.79858000  1
  C  C11  1  0.78776000  0.76746000  0.70142000  1
  C  C12  1  0.10077000  0.56020000  0.29066000  1
  C  C13  1  0.45163000  0.93980000  0.20934000  1
  C  C14  1  0.06356000  0.72700000  0.20368000  1
  C  C15  1  0.49424000  0.77300000  0.29632000  1
  C  C16  1  0.78782000  0.63980000  0.84796000  1
  C  C17  1  0.77558000  0.86020000  0.65204000  1
  C  C18  1  0.68140000  0.24780000  0.46140000  1
  C  C19  1  0.89060000  0.25220000  0.03860000  1
  C  C20  1  0.63889000  0.00720000  0.79102000  1
  C  C21  1  0.93711000  0.49280000  0.70898000  1
  C  C22  1  0.11370000  0.59716000  0.25264000  1
  C  C23  1  0.46350000  0.90284000  0.24736000  1
  C  C24  1  0.48020000  0.56740000  0.56240000  1
  C  C25  1  0.11000000  0.93260000  0.93760000  1
  C  C26  1  0.38520000  0.59860000  0.73300000  1
  C  C27  1  0.21680000  0.90140000  0.76700000  1
  C  C28  1  0.04247000  0.70840000  0.31586000  1
  C  C29  1  0.56673000  0.79160000  0.18414000  1
  C  C30  1  0.33154000  0.11588000  0.33164000  1
  C  C31  1  0.27906000  0.38412000  0.16836000  1
  C  C32  1  0.61479000  0.74560000  0.15042000  1
  C  C33  1  0.01081000  0.75440000  0.34958000  1
  C  C34  1  0.31938000  0.20860000  0.28224000  1
  C  C35  1  0.31022000  0.29140000  0.21776000  1
  C  C36  1  0.37110000  0.61460000  0.77920000  1
  C  C37  1  0.26490000  0.88540000  0.72080000  1
  C  C38  1  0.80568000  0.69820000  0.83144000  1
  C  C39  1  0.83532000  0.80180000  0.66856000  1
  C  C40  1  0.82700000  0.60580000  0.88580000  1
  C  C41  1  0.81860000  0.89420000  0.61420000  1
  C  C42  1  0.70533000  0.02840000  0.71534000  1
  C  C43  1  0.94907000  0.47160000  0.78466000  1
  C  C44  1  0.48220000  0.60780000  0.60320000  1
  C  C45  1  0.19320000  0.89220000  0.89680000  1
  C  C46  1  0.96200000  0.50860000  0.74660000  1
  C  C47  1  0.56100000  0.66440000  0.39280000  1
  C  C48  1  0.11820000  0.83560000  0.10720000  1
  C  C49  1  0.71720000  0.99140000  0.75340000  1
  C  C50  1  0.56476000  0.71340000  0.35668000  1
  C  C51  1  0.13484000  0.78660000  0.14332000  1
  C  C52  1  0.44050000  0.56820000  0.75480000  1
  C  C53  1  0.26350000  0.93180000  0.74520000  1
  C  C54  1  0.37911000  0.15020000  0.29878000  1
  C  C55  1  0.32809000  0.34980000  0.20122000  1
  C  C56  1  0.16352000  0.69478000  0.21078000  1
  C  C57  1  0.56908000  0.80522000  0.28922000  1
  C  C58  1  0.94410000  0.25000000  0.11180000  1
  C  C59  1  0.80590000  0.25000000  0.38820000  1
  C  C60  1  0.37500000  0.25000000  0.25000000  1
  C  C61  1  0.17700000  0.64600000  0.25000000  1
  C  C62  1  0.57300000  0.85400000  0.25000000  1
  C  C63  1  0.14170000  0.69478000  0.28922000  1
  C  C64  1  0.62570000  0.80522000  0.21078000  1
  C  C65  1  0.47069000  0.15020000  0.20122000  1
  C  C66  1  0.32211000  0.34980000  0.29878000  1
  C  C67  1  0.99130000  0.56820000  0.74520000  1
  C  C68  1  0.80470000  0.93180000  0.75480000  1
  C  C69  1  0.72184000  0.71340000  0.14332000  1
  C  C70  1  0.07856000  0.78660000  0.35668000  1
  C  C71  1  0.52940000  0.50860000  0.75340000  1
  C  C72  1  0.77460000  0.66440000  0.10720000  1
  C  C73  1  0.04620000  0.83560000  0.39280000  1
  C  C74  1  0.29140000  0.99140000  0.74660000  1
  C  C75  1  0.91000000  0.60780000  0.89680000  1
  C  C76  1  0.91460000  0.89220000  0.60320000  1
  C  C77  1  0.26627000  0.02840000  0.78466000  1
  C  C78  1  0.57933000  0.47160000  0.71534000  1
  C  C79  1  0.56720000  0.60580000  0.61420000  1
  C  C80  1  0.28720000  0.89420000  0.88580000  1
  C  C81  1  0.49612000  0.69820000  0.66856000  1
  C  C82  1  0.36288000  0.80180000  0.83144000  1
  C  C83  1  0.01430000  0.61460000  0.72080000  1
  C  C84  1  0.84970000  0.88540000  0.77920000  1
  C  C85  1  0.47202000  0.20860000  0.21776000  1
  C  C86  1  0.39838000  0.29140000  0.28224000  1
  C  C87  1  0.63961000  0.74560000  0.34958000  1
  C  C88  1  0.23479000  0.75440000  0.15042000  1
  C  C89  1  0.55258000  0.11588000  0.16836000  1
  C  C90  1  0.33682000  0.38412000  0.33164000  1
  C  C91  1  0.24913000  0.70840000  0.18414000  1
  C  C92  1  0.64167000  0.79160000  0.31586000  1
  C  C93  1  0.01620000  0.59860000  0.76700000  1
  C  C94  1  0.88180000  0.90140000  0.73300000  1
  C  C95  1  0.95240000  0.56740000  0.93760000  1
  C  C96  1  0.95740000  0.93260000  0.56240000  1
  C  C97  1  0.28914000  0.59716000  0.24736000  1
  C  C98  1  0.63366000  0.90284000  0.25264000  1
  C  C99  1  0.35391000  0.00720000  0.70898000  1
  C  C100  1  0.57009000  0.49280000  0.79102000  1
  C  C101  1  0.07080000  0.24780000  0.03860000  1
  C  C102  1  0.85720000  0.25220000  0.46140000  1
  C  C103  1  0.57238000  0.63980000  0.65204000  1
  C  C104  1  0.36422000  0.86020000  0.84796000  1
  C  C105  1  0.20944000  0.72700000  0.29632000  1
  C  C106  1  0.73276000  0.77300000  0.20368000  1
  C  C107  1  0.33903000  0.56020000  0.20934000  1
  C  C108  1  0.60857000  0.93980000  0.29066000  1
  C  C109  1  0.51082000  0.73254000  0.70142000  1
  C  C110  1  0.44478000  0.76746000  0.79858000  1
  C  C111  1  0.78082000  0.72700000  0.16996000  1
  C  C112  1  0.17778000  0.77300000  0.33004000  1
  C  C113  1  0.30389000  0.08120000  0.78502000  1
  C  C114  1  0.67011000  0.41880000  0.71498000  1
  C  C115  1  0.87380000  0.64600000  0.08580000  1
  C  C116  1  0.10560000  0.85400000  0.41420000  1
  C  C117  1  0.03660000  0.15880000  0.25600000  1
  C  C118  1  0.95140000  0.34120000  0.24400000  1
  C  C119  1  0.92290000  0.59380000  0.05040000  1
  C  C120  1  0.06710000  0.90620000  0.44960000  1
  C  C121  1  0.93290000  0.09380000  0.55040000  1
  C  C122  1  0.07710000  0.40620000  0.94960000  1
  C  C123  1  0.04860000  0.65880000  0.75600000  1
  C  C124  1  0.96340000  0.84120000  0.74400000  1
  C  C125  1  0.89440000  0.14600000  0.58580000  1
  C  C126  1  0.12620000  0.35400000  0.91420000  1
  C  C127  1  0.32989000  0.58120000  0.28502000  1
  C  C128  1  0.69611000  0.91880000  0.21498000  1
  C  C129  1  0.82222000  0.22700000  0.66996000  1
  C  C130  1  0.21918000  0.27300000  0.83004000  1
  C  C131  1  0.55522000  0.23254000  0.20142000  1
  C  C132  1  0.48918000  0.26746000  0.29858000  1
  C  C133  1  0.39143000  0.06020000  0.70934000  1
  C  C134  1  0.66097000  0.43980000  0.79066000  1
  C  C135  1  0.26724000  0.22700000  0.79632000  1
  C  C136  1  0.79056000  0.27300000  0.70368000  1
  C  C137  1  0.63578000  0.13980000  0.15204000  1
  C  C138  1  0.42762000  0.36020000  0.34796000  1
  C  C139  1  0.14280000  0.74780000  0.53860000  1
  C  C140  1  0.92920000  0.75220000  0.96140000  1
  C  C141  1  0.42991000  0.50720000  0.20898000  1
  C  C142  1  0.64609000  0.99280000  0.29102000  1
  C  C143  1  0.36634000  0.09716000  0.74736000  1
  C  C144  1  0.71086000  0.40284000  0.75264000  1
  C  C145  1  0.04260000  0.06740000  0.43760000  1
  C  C146  1  0.04760000  0.43260000  0.06240000  1
  C  C147  1  0.11820000  0.09860000  0.26700000  1
  C  C148  1  0.98380000  0.40140000  0.23300000  1
  C  C149  1  0.35833000  0.20840000  0.68414000  1
  C  C150  1  0.75087000  0.29160000  0.81586000  1
  C  C151  1  0.66318000  0.61588000  0.66836000  1
  C  C152  1  0.44742000  0.88412000  0.83164000  1
  C  C153  1  0.76521000  0.24560000  0.84958000  1
  C  C154  1  0.36039000  0.25440000  0.65042000  1
  C  C155  1  0.60162000  0.70860000  0.71776000  1
  C  C156  1  0.52798000  0.79140000  0.78224000  1
  C  C157  1  0.15030000  0.11460000  0.22080000  1
  C  C158  1  0.98570000  0.38540000  0.27920000  1
  C  C159  1  0.63712000  0.19820000  0.16856000  1
  C  C160  1  0.50388000  0.30180000  0.33144000  1
  C  C161  1  0.71280000  0.10580000  0.11420000  1
  C  C162  1  0.43280000  0.39420000  0.38580000  1
  C  C163  1  0.42067000  0.52840000  0.28466000  1
  C  C164  1  0.73373000  0.97160000  0.21534000  1
  C  C165  1  0.08540000  0.10780000  0.39680000  1
  C  C166  1  0.09000000  0.39220000  0.10320000  1
  C  C167  1  0.70860000  0.00860000  0.25340000  1
  C  C168  1  0.95380000  0.16440000  0.60720000  1
  C  C169  1  0.22540000  0.33560000  0.89280000  1
  C  C170  1  0.47060000  0.49140000  0.24660000  1
  C  C171  1  0.92144000  0.21340000  0.64332000  1
  C  C172  1  0.27816000  0.28660000  0.85668000  1
  C  C173  1  0.19530000  0.06820000  0.24520000  1
  C  C174  1  0.00870000  0.43180000  0.25480000  1
  C  C175  1  0.67789000  0.65020000  0.70122000  1
  C  C176  1  0.52931000  0.84980000  0.79878000  1
  C  C177  1  0.37430000  0.19478000  0.78922000  1
  C  C178  1  0.85830000  0.30522000  0.71078000  1
  C  C179  1  0.42700000  0.14600000  0.75000000  1
  C  C180  1  0.82300000  0.35400000  0.75000000  1
  C  C181  1  0.62500000  0.75000000  0.75000000  1
  C  C182  1  0.19410000  0.75000000  0.61180000  1
  C  C183  1  0.05590000  0.75000000  0.88820000  1
  C  C184  1  0.43092000  0.19478000  0.71078000  1
  C  C185  1  0.83648000  0.30522000  0.78922000  1
  C  C186  1  0.67191000  0.65020000  0.79878000  1
  C  C187  1  0.62089000  0.84980000  0.70122000  1
  C  C188  1  0.73650000  0.06820000  0.25480000  1
  C  C189  1  0.55950000  0.43180000  0.24520000  1
  C  C190  1  0.86516000  0.21340000  0.85668000  1
  C  C191  1  0.43524000  0.28660000  0.64332000  1
  C  C192  1  0.28280000  0.00860000  0.24660000  1
  C  C193  1  0.88180000  0.16440000  0.89280000  1
  C  C194  1  0.43900000  0.33560000  0.60720000  1
  C  C195  1  0.03800000  0.49140000  0.25340000  1
  C  C196  1  0.80680000  0.10780000  0.10320000  1
  C  C197  1  0.51780000  0.39220000  0.39680000  1
  C  C198  1  0.05093000  0.52840000  0.21534000  1
  C  C199  1  0.29467000  0.97160000  0.28466000  1
  C  C200  1  0.18140000  0.10580000  0.38580000  1
  C  C201  1  0.17300000  0.39420000  0.11420000  1
  C  C202  1  0.16468000  0.19820000  0.33144000  1
  C  C203  1  0.19432000  0.30180000  0.16856000  1
  C  C204  1  0.73510000  0.11460000  0.27920000  1
  C  C205  1  0.62890000  0.38540000  0.22080000  1
  C  C206  1  0.68978000  0.70860000  0.78224000  1
  C  C207  1  0.68062000  0.79140000  0.71776000  1
  C  C208  1  0.98919000  0.24560000  0.65042000  1
  C  C209  1  0.38521000  0.25440000  0.84958000  1
  C  C210  1  0.72094000  0.61588000  0.83164000  1
  C  C211  1  0.66846000  0.88412000  0.66836000  1
  C  C212  1  0.43327000  0.20840000  0.81586000  1
  C  C213  1  0.95753000  0.29160000  0.68414000  1
  C  C214  1  0.78320000  0.09860000  0.23300000  1
  C  C215  1  0.61480000  0.40140000  0.26700000  1
  C  C216  1  0.89000000  0.06740000  0.06240000  1
  C  C217  1  0.51980000  0.43260000  0.43760000  1
  C  C218  1  0.53650000  0.09716000  0.75264000  1
  C  C219  1  0.88630000  0.40284000  0.74736000  1
  C  C220  1  0.06289000  0.50720000  0.29102000  1
  C  C221  1  0.36111000  0.99280000  0.20898000  1
  C  C222  1  0.10940000  0.74780000  0.96140000  1
  C  C223  1  0.31860000  0.75220000  0.53860000  1
  C  C224  1  0.22442000  0.13980000  0.34796000  1
  C  C225  1  0.21218000  0.36020000  0.15204000  1
  C  C226  1  0.50576000  0.22700000  0.70368000  1
  C  C227  1  0.93644000  0.27300000  0.79632000  1
  C  C228  1  0.54837000  0.06020000  0.79066000  1
  C  C229  1  0.89923000  0.43980000  0.70934000  1
  C  C230  1  0.21224000  0.23254000  0.29858000  1
  C  C231  1  0.24336000  0.26746000  0.20142000  1
  C  C232  1  0.95078000  0.22700000  0.83004000  1
  C  C233  1  0.50782000  0.27300000  0.66996000  1
  C  C234  1  0.08891000  0.58120000  0.21498000  1
  C  C235  1  0.38509000  0.91880000  0.28502000  1
  C  C236  1  0.95960000  0.14600000  0.91420000  1
  C  C237  1  0.51980000  0.35400000  0.58580000  1
  C  C238  1  0.29260000  0.65880000  0.74400000  1
  C  C239  1  0.19540000  0.84120000  0.75600000  1
  C  C240  1  0.97330000  0.09380000  0.94960000  1
  C  C241  1  0.51670000  0.40620000  0.55040000  1
  Cu  Cu242  1  0.07458000  0.01860000  0.00802000  1
  Cu  Cu243  1  0.60120000  0.48140000  0.49198000  1
  Cu  Cu244  1  0.89606000  0.25000000  0.20788000  1
  Cu  Cu245  1  0.85394000  0.25000000  0.29212000  1
  Cu  Cu246  1  0.90682000  0.01860000  0.49198000  1
  Cu  Cu247  1  0.91740000  0.48140000  0.00802000  1
  Cu  Cu248  1  0.08260000  0.51860000  0.99198000  1
  Cu  Cu249  1  0.09318000  0.98140000  0.50802000  1
  Cu  Cu250  1  0.14606000  0.75000000  0.70788000  1
  Cu  Cu251  1  0.10394000  0.75000000  0.79212000  1
  Cu  Cu252  1  0.39880000  0.51860000  0.50802000  1
  Cu  Cu253  1  0.92542000  0.98140000  0.99198000  1
  H  H254  1  0.50480000  0.18680000  0.81120000  1
  H  H255  1  0.00280000  0.31320000  0.68880000  1
  H  H256  1  0.60690000  0.10600000  0.68960000  1
  H  H257  1  0.90250000  0.39400000  0.81040000  1
  H  H258  1  0.57530000  0.73660000  0.13260000  1
  H  H259  1  0.94450000  0.76340000  0.36740000  1
  H  H260  1  0.55430000  0.21800000  0.72140000  1
  H  H261  1  0.99370000  0.28200000  0.77860000  1
  H  H262  1  0.78910000  0.58080000  0.90320000  1
  H  H263  1  0.77310000  0.91920000  0.59680000  1
  H  H264  1  0.01760000  0.20540000  0.83480000  1
  H  H265  1  0.55780000  0.29460000  0.66520000  1
  H  H266  1  0.41910000  0.63380000  0.61960000  1
  H  H267  1  0.17250000  0.86620000  0.88040000  1
  H  H268  1  0.94570000  0.51760000  0.68360000  1
  H  H269  1  0.64690000  0.98240000  0.81640000  1
  H  H270  1  0.01000000  0.16720000  0.90680000  1
  H  H271  1  0.58400000  0.33280000  0.59320000  1
  H  H272  1  0.82780000  0.72840000  0.71240000  1
  H  H273  1  0.76860000  0.77160000  0.78760000  1
  H  H274  1  0.11740000  0.57080000  0.31580000  1
  H  H275  1  0.50400000  0.92920000  0.18420000  1
  H  H276  1  0.37150000  0.07680000  0.34260000  1
  H  H277  1  0.29090000  0.42320000  0.15740000  1
  H  H278  1  0.41500000  0.13420000  0.21220000  1
  H  H279  1  0.26140000  0.36580000  0.28780000  1
  H  H280  1  0.73240000  0.64380000  0.09840000  1
  H  H281  1  0.97460000  0.85620000  0.40160000  1
  H  H282  1  0.75780000  0.01760000  0.69020000  1
  H  H283  1  0.96560000  0.48240000  0.80980000  1
  H  H284  1  0.43530000  0.71420000  0.65760000  1
  H  H285  1  0.30710000  0.78580000  0.84240000  1
  H  H286  1  0.85050000  0.71420000  0.84240000  1
  H  H287  1  0.90710000  0.78580000  0.65760000  1
  H  H288  1  0.22460000  0.01760000  0.80980000  1
  H  H289  1  0.55200000  0.48240000  0.69020000  1
  H  H290  1  0.62380000  0.64380000  0.40160000  1
  H  H291  1  0.16920000  0.85620000  0.09840000  1
  H  H292  1  0.45080000  0.13420000  0.28780000  1
  H  H293  1  0.37280000  0.36580000  0.21220000  1
  H  H294  1  0.55170000  0.07680000  0.15740000  1
  H  H295  1  0.28590000  0.42320000  0.34260000  1
  H  H296  1  0.31180000  0.57080000  0.18420000  1
  H  H297  1  0.56680000  0.92920000  0.31580000  1
  H  H298  1  0.44380000  0.72840000  0.78760000  1
  H  H299  1  0.45980000  0.77160000  0.71240000  1
  H  H300  1  0.82280000  0.16720000  0.59320000  1
  H  H301  1  0.08320000  0.33280000  0.90680000  1
  H  H302  1  0.53670000  0.51760000  0.81640000  1
  H  H303  1  0.37070000  0.98240000  0.68360000  1
  H  H304  1  0.94710000  0.63380000  0.88040000  1
  H  H305  1  0.96130000  0.86620000  0.61960000  1
  H  H306  1  0.77700000  0.20540000  0.66520000  1
  H  H307  1  0.14760000  0.29460000  0.83480000  1
  H  H308  1  0.63010000  0.58080000  0.59680000  1
  H  H309  1  0.30770000  0.91920000  0.90320000  1
  H  H310  1  0.22770000  0.21800000  0.77860000  1
  H  H311  1  0.72430000  0.28200000  0.72140000  1
  H  H312  1  0.68810000  0.73660000  0.36740000  1
  H  H313  1  0.29210000  0.76340000  0.13260000  1
  H  H314  1  0.28710000  0.10600000  0.81040000  1
  H  H315  1  0.70350000  0.39400000  0.68960000  1
  H  H316  1  0.30840000  0.18680000  0.68880000  1
  H  H317  1  0.68400000  0.31320000  0.81120000  1
  H  H318  1  0.31600000  0.68680000  0.18880000  1
  H  H319  1  0.69160000  0.81320000  0.31120000  1
  H  H320  1  0.29650000  0.60600000  0.31040000  1
  H  H321  1  0.71290000  0.89400000  0.18960000  1
  H  H322  1  0.70790000  0.23660000  0.86740000  1
  H  H323  1  0.31190000  0.26340000  0.63260000  1
  H  H324  1  0.27570000  0.71800000  0.27860000  1
  H  H325  1  0.77230000  0.78200000  0.22140000  1
  H  H326  1  0.69230000  0.08080000  0.09680000  1
  H  H327  1  0.36990000  0.41920000  0.40320000  1
  H  H328  1  0.85240000  0.70540000  0.16520000  1
  H  H329  1  0.22300000  0.79460000  0.33480000  1
  H  H330  1  0.03870000  0.13380000  0.38040000  1
  H  H331  1  0.05290000  0.36620000  0.11960000  1
  H  H332  1  0.62930000  0.01760000  0.31640000  1
  H  H333  1  0.46330000  0.48240000  0.18360000  1
  H  H334  1  0.91680000  0.66720000  0.09320000  1
  H  H335  1  0.17720000  0.83280000  0.40680000  1
  H  H336  1  0.54020000  0.22840000  0.28760000  1
  H  H337  1  0.55620000  0.27160000  0.21240000  1
  H  H338  1  0.43320000  0.07080000  0.68420000  1
  H  H339  1  0.68820000  0.42920000  0.81580000  1
  H  H340  1  0.71410000  0.57680000  0.65740000  1
  H  H341  1  0.44830000  0.92320000  0.84260000  1
  H  H342  1  0.62720000  0.63420000  0.78780000  1
  H  H343  1  0.54920000  0.86580000  0.71220000  1
  H  H344  1  0.83080000  0.14380000  0.90160000  1
  H  H345  1  0.37620000  0.35620000  0.59840000  1
  H  H346  1  0.44800000  0.51760000  0.30980000  1
  H  H347  1  0.77540000  0.98240000  0.19020000  1
  H  H348  1  0.09290000  0.21420000  0.34240000  1
  H  H349  1  0.14950000  0.28580000  0.15760000  1
  H  H350  1  0.69290000  0.21420000  0.15760000  1
  H  H351  1  0.56470000  0.28580000  0.34240000  1
  H  H352  1  0.03440000  0.51760000  0.19020000  1
  H  H353  1  0.24220000  0.98240000  0.30980000  1
  H  H354  1  0.02540000  0.14380000  0.59840000  1
  H  H355  1  0.26760000  0.35620000  0.90160000  1
  H  H356  1  0.73860000  0.63420000  0.71220000  1
  H  H357  1  0.58500000  0.86580000  0.78780000  1
  H  H358  1  0.70910000  0.57680000  0.84260000  1
  H  H359  1  0.62850000  0.92320000  0.65740000  1
  H  H360  1  0.49600000  0.07080000  0.81580000  1
  H  H361  1  0.88260000  0.42920000  0.68420000  1
  H  H362  1  0.23140000  0.22840000  0.21240000  1
  H  H363  1  0.17220000  0.27160000  0.28760000  1
  H  H364  1  0.41600000  0.66720000  0.40680000  1
  H  H365  1  0.99000000  0.83280000  0.09320000  1
  H  H366  1  0.35310000  0.01760000  0.18360000  1
  H  H367  1  0.05430000  0.48240000  0.31640000  1
  H  H368  1  0.82750000  0.13380000  0.11960000  1
  H  H369  1  0.58090000  0.36620000  0.38040000  1
  H  H370  1  0.44220000  0.70540000  0.33480000  1
  H  H371  1  0.98240000  0.79460000  0.16520000  1
  H  H372  1  0.22690000  0.08080000  0.40320000  1
  H  H373  1  0.21090000  0.41920000  0.09680000  1
  H  H374  1  0.00630000  0.71800000  0.22140000  1
  H  H375  1  0.44570000  0.78200000  0.27860000  1
  H  H376  1  0.05550000  0.23660000  0.63260000  1
  H  H377  1  0.42470000  0.26340000  0.86740000  1
  H  H378  1  0.09750000  0.60600000  0.18960000  1
  H  H379  1  0.39310000  0.89400000  0.31040000  1
  H  H380  1  0.99720000  0.68680000  0.31120000  1
  H  H381  1  0.49520000  0.81320000  0.18880000  1
  N  N382  1  0.96640000  0.25000000  0.06720000  1
  N  N383  1  0.78360000  0.25000000  0.43280000  1
  N  N384  1  0.21640000  0.75000000  0.56720000  1
  N  N385  1  0.03360000  0.75000000  0.93280000  1
  O  O386  1  0.77380000  0.18660000  0.28260000  1
  O  O387  1  0.74300000  0.31340000  0.21740000  1
  O  O388  1  0.98020000  0.07240000  0.05520000  1
  O  O389  1  0.84890000  0.17580000  0.21440000  1
  O  O390  1  0.73910000  0.32420000  0.28560000  1
  O  O391  1  0.60780000  0.42760000  0.44480000  1
  O  O392  1  0.03620000  0.09200000  0.96860000  1
  O  O393  1  0.59680000  0.40800000  0.53140000  1
  O  O394  1  0.77190000  0.24900000  0.36100000  1
  O  O395  1  0.88190000  0.25100000  0.13900000  1
  O  O396  1  0.58138000  0.56000000  0.45224000  1
  O  O397  1  0.09362000  0.94000000  0.04776000  1
  O  O398  1  0.57676000  0.53820000  0.54188000  1
  O  O399  1  0.15684000  0.96180000  0.95812000  1
  O  O400  1  0.88504000  0.53820000  0.95812000  1
  O  O401  1  0.88136000  0.96180000  0.54188000  1
  O  O402  1  0.85862000  0.56000000  0.04776000  1
  O  O403  1  0.96638000  0.94000000  0.45224000  1
  O  O404  1  0.97910000  0.24900000  0.13900000  1
  O  O405  1  0.86710000  0.25100000  0.36100000  1
  O  O406  1  0.87180000  0.09200000  0.53140000  1
  O  O407  1  0.99520000  0.40800000  0.96860000  1
  O  O408  1  0.94740000  0.07240000  0.44480000  1
  O  O409  1  0.97530000  0.17580000  0.28560000  1
  O  O410  1  0.93670000  0.32420000  0.21440000  1
  O  O411  1  0.96460000  0.42760000  0.05520000  1
  O  O412  1  0.03960000  0.18660000  0.21740000  1
  O  O413  1  0.94360000  0.31340000  0.28260000  1
  O  O414  1  0.05640000  0.68660000  0.71740000  1
  O  O415  1  0.96040000  0.81340000  0.78260000  1
  O  O416  1  0.03540000  0.57240000  0.94480000  1
  O  O417  1  0.06330000  0.67580000  0.78560000  1
  O  O418  1  0.02470000  0.82420000  0.71440000  1
  O  O419  1  0.05260000  0.92760000  0.55520000  1
  O  O420  1  0.00480000  0.59200000  0.03140000  1
  O  O421  1  0.12820000  0.90800000  0.46860000  1
  O  O422  1  0.13290000  0.74900000  0.63900000  1
  O  O423  1  0.02090000  0.75100000  0.86100000  1
  O  O424  1  0.03362000  0.06000000  0.54776000  1
  O  O425  1  0.14138000  0.44000000  0.95224000  1
  O  O426  1  0.11864000  0.03820000  0.45812000  1
  O  O427  1  0.11496000  0.46180000  0.04188000  1
  O  O428  1  0.84316000  0.03820000  0.04188000  1
  O  O429  1  0.42324000  0.46180000  0.45812000  1
  O  O430  1  0.90638000  0.06000000  0.95224000  1
  O  O431  1  0.41862000  0.44000000  0.54776000  1
  O  O432  1  0.11810000  0.74900000  0.86100000  1
  O  O433  1  0.22810000  0.75100000  0.63900000  1
  O  O434  1  0.40320000  0.59200000  0.46860000  1
  O  O435  1  0.96380000  0.90800000  0.03140000  1
  O  O436  1  0.39220000  0.57240000  0.55520000  1
  O  O437  1  0.26090000  0.67580000  0.71440000  1
  O  O438  1  0.15110000  0.82420000  0.78560000  1
  O  O439  1  0.01980000  0.92760000  0.94480000  1
  O  O440  1  0.25700000  0.68660000  0.78260000  1
  O  O441  1  0.22620000  0.81340000  0.71740000  1
