# generated using pymatgen
data_CdH36(C4N)12
_symmetry_space_group_name_H-M   'P 1'
_cell_length_a   15.83460000
_cell_length_b   15.83460000
_cell_length_c   21.46300000
_cell_angle_alpha   90.00000000
_cell_angle_beta   90.00000000
_cell_angle_gamma   90.00000000
_symmetry_Int_Tables_number   1
_chemical_formula_structural   CdH36(C4N)12
_chemical_formula_sum   'Cd4 H144 C192 N48'
_cell_volume   5381.51580033
_cell_formula_units_Z   4
loop_
 _symmetry_equiv_pos_site_id
 _symmetry_equiv_pos_as_xyz
  1  'x, y, z'
loop_
 _atom_site_type_symbol
 _atom_site_label
 _atom_site_symmetry_multiplicity
 _atom_site_fract_x
 _atom_site_fract_y
 _atom_site_fract_z
 _atom_site_occupancy
  Cd  Cd0  1  0.06021000  0.06021000  0.50000000  1
  Cd  Cd1  1  0.43979000  0.56021000  0.75000000  1
  Cd  Cd2  1  0.56021000  0.43979000  0.25000000  1
  Cd  Cd3  1  0.93979000  0.93979000  0.00000000  1
  H  H4  1  0.00900000  0.20190000  0.95680000  1
  H  H5  1  0.00910000  0.76210000  0.92580000  1
  H  H6  1  0.03710000  0.11170000  0.34680000  1
  H  H7  1  0.03830000  0.33530000  0.71000000  1
  H  H8  1  0.04100000  0.25030000  0.15340000  1
  H  H9  1  0.04590000  0.88000000  0.29090000  1
  H  H10  1  0.05780000  0.83890000  0.09310000  1
  H  H11  1  0.07270000  0.76380000  0.22690000  1
  H  H12  1  0.08300000  0.26480000  0.09240000  1
  H  H13  1  0.08400000  0.70100000  0.41260000  1
  H  H14  1  0.08630000  0.21560000  0.28190000  1
  H  H15  1  0.09970000  0.64940000  0.93470000  1
  H  H16  1  0.11170000  0.03710000  0.65320000  1
  H  H17  1  0.12000000  0.95410000  0.20910000  1
  H  H18  1  0.13880000  0.80500000  0.61060000  1
  H  H19  1  0.14130000  0.23070000  0.54090000  1
  H  H20  1  0.14930000  0.72850000  0.11080000  1
  H  H21  1  0.14940000  0.40030000  0.68470000  1
  H  H22  1  0.15030000  0.30100000  0.21760000  1
  H  H23  1  0.16110000  0.94220000  0.40690000  1
  H  H24  1  0.16470000  0.53830000  0.96000000  1
  H  H25  1  0.17490000  0.22400000  0.84430000  1
  H  H26  1  0.19500000  0.86120000  0.88940000  1
  H  H27  1  0.19900000  0.65030000  0.46760000  1
  H  H28  1  0.20100000  0.41600000  0.16260000  1
  H  H29  1  0.20190000  0.00900000  0.04320000  1
  H  H30  1  0.21130000  0.74130000  0.85520000  1
  H  H31  1  0.21560000  0.08630000  0.71810000  1
  H  H32  1  0.22400000  0.17490000  0.15570000  1
  H  H33  1  0.22850000  0.35070000  0.86080000  1
  H  H34  1  0.23070000  0.14130000  0.45910000  1
  H  H35  1  0.23520000  0.58300000  0.34240000  1
  H  H36  1  0.23620000  0.92730000  0.27310000  1
  H  H37  1  0.23790000  0.99090000  0.57420000  1
  H  H38  1  0.24130000  0.28870000  0.60520000  1
  H  H39  1  0.24970000  0.54100000  0.40340000  1
  H  H40  1  0.25030000  0.04100000  0.84660000  1
  H  H41  1  0.25870000  0.78870000  0.64480000  1
  H  H42  1  0.26210000  0.49090000  0.67580000  1
  H  H43  1  0.26380000  0.42730000  0.97690000  1
  H  H44  1  0.26480000  0.08300000  0.90760000  1
  H  H45  1  0.26930000  0.64130000  0.79090000  1
  H  H46  1  0.27150000  0.85070000  0.38920000  1
  H  H47  1  0.27600000  0.67490000  0.09430000  1
  H  H48  1  0.28440000  0.58630000  0.53190000  1
  H  H49  1  0.28870000  0.24130000  0.39480000  1
  H  H50  1  0.29810000  0.50900000  0.20680000  1
  H  H51  1  0.29900000  0.91600000  0.08740000  1
  H  H52  1  0.30100000  0.15030000  0.78240000  1
  H  H53  1  0.30500000  0.36120000  0.36060000  1
  H  H54  1  0.32510000  0.72400000  0.40570000  1
  H  H55  1  0.33530000  0.03830000  0.29000000  1
  H  H56  1  0.33890000  0.44220000  0.84310000  1
  H  H57  1  0.34970000  0.80100000  0.03240000  1
  H  H58  1  0.35060000  0.90030000  0.56530000  1
  H  H59  1  0.35070000  0.22850000  0.13920000  1
  H  H60  1  0.35870000  0.73070000  0.70910000  1
  H  H61  1  0.36120000  0.30500000  0.63940000  1
  H  H62  1  0.38000000  0.45410000  0.04090000  1
  H  H63  1  0.38830000  0.53710000  0.59680000  1
  H  H64  1  0.40030000  0.14940000  0.31530000  1
  H  H65  1  0.41370000  0.71560000  0.96810000  1
  H  H66  1  0.41600000  0.20100000  0.83740000  1
  H  H67  1  0.41700000  0.76480000  0.15760000  1
  H  H68  1  0.42730000  0.26380000  0.02310000  1
  H  H69  1  0.44220000  0.33890000  0.15690000  1
  H  H70  1  0.45410000  0.38000000  0.95910000  1
  H  H71  1  0.45900000  0.75030000  0.09660000  1
  H  H72  1  0.46170000  0.83530000  0.54000000  1
  H  H73  1  0.46290000  0.61170000  0.90320000  1
  H  H74  1  0.49090000  0.26210000  0.32420000  1
  H  H75  1  0.49100000  0.70190000  0.29320000  1
  H  H76  1  0.50900000  0.29810000  0.79320000  1
  H  H77  1  0.50910000  0.73790000  0.82420000  1
  H  H78  1  0.53710000  0.38830000  0.40320000  1
  H  H79  1  0.53830000  0.16470000  0.04000000  1
  H  H80  1  0.54100000  0.24970000  0.59660000  1
  H  H81  1  0.54590000  0.62000000  0.45910000  1
  H  H82  1  0.55780000  0.66110000  0.65690000  1
  H  H83  1  0.57270000  0.73620000  0.52310000  1
  H  H84  1  0.58300000  0.23520000  0.65760000  1
  H  H85  1  0.58400000  0.79900000  0.33740000  1
  H  H86  1  0.58630000  0.28440000  0.46810000  1
  H  H87  1  0.59970000  0.85060000  0.81530000  1
  H  H88  1  0.61170000  0.46290000  0.09680000  1
  H  H89  1  0.62000000  0.54590000  0.54090000  1
  H  H90  1  0.63880000  0.69500000  0.13940000  1
  H  H91  1  0.64130000  0.26930000  0.20910000  1
  H  H92  1  0.64930000  0.77150000  0.63920000  1
  H  H93  1  0.64940000  0.09970000  0.06530000  1
  H  H94  1  0.65030000  0.19900000  0.53240000  1
  H  H95  1  0.66110000  0.55780000  0.34310000  1
  H  H96  1  0.66470000  0.96170000  0.79000000  1
  H  H97  1  0.67490000  0.27600000  0.90570000  1
  H  H98  1  0.69500000  0.63880000  0.86060000  1
  H  H99  1  0.69900000  0.84970000  0.28240000  1
  H  H100  1  0.70100000  0.08400000  0.58740000  1
  H  H101  1  0.70190000  0.49100000  0.70680000  1
  H  H102  1  0.71130000  0.75870000  0.89480000  1
  H  H103  1  0.71560000  0.41370000  0.03190000  1
  H  H104  1  0.72400000  0.32510000  0.59430000  1
  H  H105  1  0.72850000  0.14930000  0.88920000  1
  H  H106  1  0.73070000  0.35870000  0.29090000  1
  H  H107  1  0.73520000  0.91700000  0.40760000  1
  H  H108  1  0.73620000  0.57270000  0.47690000  1
  H  H109  1  0.73790000  0.50910000  0.17580000  1
  H  H110  1  0.74130000  0.21130000  0.14480000  1
  H  H111  1  0.74970000  0.95900000  0.34660000  1
  H  H112  1  0.75030000  0.45900000  0.90340000  1
  H  H113  1  0.75870000  0.71130000  0.10520000  1
  H  H114  1  0.76210000  0.00910000  0.07420000  1
  H  H115  1  0.76380000  0.07270000  0.77310000  1
  H  H116  1  0.76480000  0.41700000  0.84240000  1
  H  H117  1  0.76930000  0.85870000  0.95910000  1
  H  H118  1  0.77150000  0.64930000  0.36080000  1
  H  H119  1  0.77600000  0.82510000  0.65570000  1
  H  H120  1  0.78440000  0.91370000  0.21810000  1
  H  H121  1  0.78870000  0.25870000  0.35520000  1
  H  H122  1  0.79810000  0.99100000  0.54320000  1
  H  H123  1  0.79900000  0.58400000  0.66260000  1
  H  H124  1  0.80100000  0.34970000  0.96760000  1
  H  H125  1  0.80500000  0.13880000  0.38940000  1
  H  H126  1  0.82510000  0.77600000  0.34430000  1
  H  H127  1  0.83530000  0.46170000  0.46000000  1
  H  H128  1  0.83890000  0.05780000  0.90690000  1
  H  H129  1  0.84970000  0.69900000  0.71760000  1
  H  H130  1  0.85060000  0.59970000  0.18470000  1
  H  H131  1  0.85070000  0.27150000  0.61080000  1
  H  H132  1  0.85870000  0.76930000  0.04090000  1
  H  H133  1  0.86120000  0.19500000  0.11060000  1
  H  H134  1  0.88000000  0.04590000  0.70910000  1
  H  H135  1  0.88830000  0.96290000  0.15320000  1
  H  H136  1  0.90030000  0.35060000  0.43470000  1
  H  H137  1  0.91370000  0.78440000  0.78190000  1
  H  H138  1  0.91600000  0.29900000  0.91260000  1
  H  H139  1  0.91700000  0.73520000  0.59240000  1
  H  H140  1  0.92730000  0.23620000  0.72690000  1
  H  H141  1  0.94220000  0.16110000  0.59310000  1
  H  H142  1  0.95410000  0.12000000  0.79090000  1
  H  H143  1  0.95900000  0.74970000  0.65340000  1
  H  H144  1  0.96170000  0.66470000  0.21000000  1
  H  H145  1  0.96290000  0.88830000  0.84680000  1
  H  H146  1  0.99090000  0.23790000  0.42580000  1
  H  H147  1  0.99100000  0.79810000  0.45680000  1
  C  C148  1  0.00340000  0.87530000  0.56870000  1
  C  C149  1  0.00650000  0.83490000  0.28870000  1
  C  C150  1  0.02090000  0.76830000  0.24900000  1
  C  C151  1  0.03890000  0.75540000  0.96390000  1
  C  C152  1  0.03960000  0.77990000  0.47900000  1
  C  C153  1  0.04320000  0.29370000  0.74170000  1
  C  C154  1  0.05730000  0.81120000  0.53720000  1
  C  C155  1  0.06560000  0.16370000  0.82540000  1
  C  C156  1  0.06640000  0.79970000  0.06020000  1
  C  C157  1  0.07430000  0.09220000  0.86920000  1
  C  C158  1  0.08730000  0.14080000  0.35800000  1
  C  C159  1  0.09220000  0.07430000  0.13080000  1
  C  C160  1  0.09370000  0.68850000  0.96800000  1
  C  C161  1  0.09430000  0.72140000  0.45350000  1
  C  C162  1  0.11160000  0.29340000  0.78000000  1
  C  C163  1  0.11680000  0.20220000  0.31870000  1
  C  C164  1  0.12300000  0.73510000  0.07130000  1
  C  C165  1  0.12470000  0.22650000  0.82010000  1
  C  C166  1  0.12470000  0.99660000  0.93130000  1
  C  C167  1  0.12760000  0.78290000  0.57030000  1
  C  C168  1  0.13990000  0.68010000  0.02250000  1
  C  C169  1  0.14080000  0.08730000  0.64200000  1
  C  C170  1  0.15740000  0.20030000  0.57710000  1
  C  C171  1  0.16360000  0.69190000  0.48590000  1
  C  C172  1  0.16370000  0.06560000  0.17460000  1
  C  C173  1  0.16510000  0.99350000  0.21130000  1
  C  C174  1  0.18010000  0.36010000  0.77250000  1
  C  C175  1  0.18220000  0.72200000  0.54480000  1
  C  C176  1  0.18850000  0.40630000  0.71800000  1
  C  C177  1  0.18880000  0.94270000  0.96280000  1
  C  C178  1  0.19190000  0.33640000  0.23590000  1
  C  C179  1  0.19230000  0.24570000  0.33270000  1
  C  C180  1  0.20030000  0.15740000  0.42290000  1
  C  C181  1  0.20030000  0.93360000  0.43980000  1
  C  C182  1  0.20220000  0.11680000  0.68130000  1
  C  C183  1  0.20630000  0.54320000  0.99170000  1
  C  C184  1  0.20660000  0.61160000  0.03000000  1
  C  C185  1  0.21710000  0.87240000  0.92970000  1
  C  C186  1  0.21820000  0.23490000  0.61500000  1
  C  C187  1  0.22010000  0.96040000  0.02100000  1
  C  C188  1  0.22140000  0.40570000  0.20350000  1
  C  C189  1  0.22200000  0.31780000  0.29480000  1
  C  C190  1  0.22650000  0.12470000  0.17990000  1
  C  C191  1  0.23170000  0.97910000  0.25100000  1
  C  C192  1  0.23490000  0.21820000  0.38500000  1
  C  C193  1  0.23510000  0.37700000  0.82130000  1
  C  C194  1  0.24460000  0.96110000  0.53610000  1
  C  C195  1  0.24570000  0.19230000  0.66730000  1
  C  C196  1  0.25430000  0.69230000  0.58270000  1
  C  C197  1  0.25540000  0.46110000  0.71390000  1
  C  C198  1  0.26490000  0.87700000  0.42870000  1
  C  C199  1  0.26510000  0.71820000  0.86500000  1
  C  C200  1  0.26830000  0.47910000  0.99900000  1
  C  C201  1  0.27350000  0.62470000  0.07010000  1
  C  C202  1  0.27800000  0.81780000  0.95520000  1
  C  C203  1  0.27860000  0.90570000  0.04650000  1
  C  C204  1  0.27990000  0.46040000  0.22900000  1
  C  C205  1  0.28180000  0.73490000  0.63500000  1
  C  C206  1  0.28290000  0.37240000  0.32030000  1
  C  C207  1  0.29340000  0.11160000  0.22000000  1
  C  C208  1  0.29370000  0.04320000  0.25830000  1
  C  C209  1  0.29780000  0.61680000  0.56870000  1
  C  C210  1  0.29970000  0.43360000  0.81020000  1
  C  C211  1  0.29970000  0.65740000  0.82710000  1
  C  C212  1  0.30770000  0.74570000  0.91730000  1
  C  C213  1  0.30810000  0.83640000  0.01410000  1
  C  C214  1  0.31120000  0.44270000  0.28720000  1
  C  C215  1  0.31150000  0.90630000  0.53200000  1
  C  C216  1  0.31780000  0.22200000  0.70520000  1
  C  C217  1  0.31990000  0.86010000  0.47750000  1
  C  C218  1  0.33490000  0.49350000  0.03870000  1
  C  C219  1  0.33630000  0.56560000  0.07540000  1
  C  C220  1  0.33640000  0.19190000  0.76410000  1
  C  C221  1  0.34260000  0.70030000  0.67290000  1
  C  C222  1  0.35920000  0.58730000  0.60800000  1
  C  C223  1  0.36010000  0.18010000  0.22750000  1
  C  C224  1  0.37240000  0.28290000  0.67970000  1
  C  C225  1  0.37530000  0.49660000  0.31870000  1
  C  C226  1  0.37530000  0.72650000  0.42990000  1
  C  C227  1  0.37700000  0.23510000  0.17870000  1
  C  C228  1  0.38320000  0.70220000  0.93130000  1
  C  C229  1  0.38840000  0.79340000  0.47000000  1
  C  C230  1  0.40570000  0.22140000  0.79650000  1
  C  C231  1  0.40630000  0.18850000  0.28200000  1
  C  C232  1  0.40780000  0.57430000  0.11920000  1
  C  C233  1  0.41270000  0.64080000  0.89200000  1
  C  C234  1  0.42570000  0.59220000  0.38080000  1
  C  C235  1  0.43360000  0.29970000  0.18980000  1
  C  C236  1  0.43440000  0.66370000  0.42460000  1
  C  C237  1  0.44270000  0.31120000  0.71280000  1
  C  C238  1  0.45680000  0.79370000  0.50830000  1
  C  C239  1  0.46040000  0.27990000  0.77100000  1
  C  C240  1  0.46110000  0.25540000  0.28610000  1
  C  C241  1  0.47910000  0.26830000  0.00100000  1
  C  C242  1  0.49350000  0.33490000  0.96130000  1
  C  C243  1  0.49660000  0.37530000  0.68130000  1
  C  C244  1  0.50340000  0.62470000  0.18130000  1
  C  C245  1  0.50650000  0.66510000  0.46130000  1
  C  C246  1  0.52090000  0.73170000  0.50100000  1
  C  C247  1  0.53890000  0.74460000  0.78610000  1
  C  C248  1  0.53960000  0.72010000  0.27100000  1
  C  C249  1  0.54320000  0.20630000  0.00830000  1
  C  C250  1  0.55730000  0.68880000  0.21280000  1
  C  C251  1  0.56560000  0.33630000  0.92460000  1
  C  C252  1  0.56640000  0.70030000  0.68980000  1
  C  C253  1  0.57430000  0.40780000  0.88080000  1
  C  C254  1  0.58730000  0.35920000  0.39200000  1
  C  C255  1  0.59220000  0.42570000  0.61920000  1
  C  C256  1  0.59370000  0.81150000  0.78200000  1
  C  C257  1  0.59430000  0.77860000  0.29650000  1
  C  C258  1  0.61160000  0.20660000  0.97000000  1
  C  C259  1  0.61680000  0.29780000  0.43130000  1
  C  C260  1  0.62300000  0.76490000  0.67870000  1
  C  C261  1  0.62470000  0.27350000  0.92990000  1
  C  C262  1  0.62470000  0.50340000  0.81870000  1
  C  C263  1  0.62760000  0.71710000  0.17970000  1
  C  C264  1  0.63990000  0.81990000  0.72750000  1
  C  C265  1  0.64080000  0.41270000  0.10800000  1
  C  C266  1  0.65740000  0.29970000  0.17290000  1
  C  C267  1  0.66360000  0.80810000  0.26410000  1
  C  C268  1  0.66370000  0.43440000  0.57540000  1
  C  C269  1  0.66510000  0.50650000  0.53870000  1
  C  C270  1  0.68010000  0.13990000  0.97750000  1
  C  C271  1  0.68220000  0.77800000  0.20520000  1
  C  C272  1  0.68850000  0.09370000  0.03200000  1
  C  C273  1  0.68880000  0.55730000  0.78720000  1
  C  C274  1  0.69190000  0.16360000  0.51410000  1
  C  C275  1  0.69230000  0.25430000  0.41730000  1
  C  C276  1  0.70030000  0.34260000  0.32710000  1
  C  C277  1  0.70030000  0.56640000  0.31020000  1
  C  C278  1  0.70220000  0.38320000  0.06870000  1
  C  C279  1  0.70630000  0.95680000  0.75830000  1
  C  C280  1  0.70660000  0.88840000  0.72000000  1
  C  C281  1  0.71710000  0.62760000  0.82030000  1
  C  C282  1  0.71820000  0.26510000  0.13500000  1
  C  C283  1  0.72010000  0.53960000  0.72900000  1
  C  C284  1  0.72140000  0.09430000  0.54650000  1
  C  C285  1  0.72200000  0.18220000  0.45520000  1
  C  C286  1  0.72650000  0.37530000  0.57010000  1
  C  C287  1  0.73170000  0.52090000  0.49900000  1
  C  C288  1  0.73490000  0.28180000  0.36500000  1
  C  C289  1  0.73510000  0.12300000  0.92870000  1
  C  C290  1  0.74460000  0.53890000  0.21390000  1
  C  C291  1  0.74570000  0.30770000  0.08270000  1
  C  C292  1  0.75430000  0.80770000  0.16730000  1
  C  C293  1  0.75540000  0.03890000  0.03610000  1
  C  C294  1  0.76490000  0.62300000  0.32130000  1
  C  C295  1  0.76510000  0.78180000  0.88500000  1
  C  C296  1  0.76830000  0.02090000  0.75100000  1
  C  C297  1  0.77350000  0.87530000  0.67990000  1
  C  C298  1  0.77800000  0.68220000  0.79480000  1
  C  C299  1  0.77860000  0.59430000  0.70350000  1
  C  C300  1  0.77990000  0.03960000  0.52100000  1
  C  C301  1  0.78180000  0.76510000  0.11500000  1
  C  C302  1  0.78290000  0.12760000  0.42970000  1
  C  C303  1  0.79340000  0.38840000  0.53000000  1
  C  C304  1  0.79370000  0.45680000  0.49170000  1
  C  C305  1  0.79780000  0.88320000  0.18130000  1
  C  C306  1  0.79970000  0.06640000  0.93980000  1
  C  C307  1  0.79970000  0.84260000  0.92290000  1
  C  C308  1  0.80770000  0.75430000  0.83270000  1
  C  C309  1  0.80810000  0.66360000  0.73590000  1
  C  C310  1  0.81120000  0.05730000  0.46280000  1
  C  C311  1  0.81150000  0.59370000  0.21800000  1
  C  C312  1  0.81780000  0.27800000  0.04480000  1
  C  C313  1  0.81990000  0.63990000  0.27250000  1
  C  C314  1  0.83490000  0.00650000  0.71130000  1
  C  C315  1  0.83630000  0.93440000  0.67460000  1
  C  C316  1  0.83640000  0.30810000  0.98590000  1
  C  C317  1  0.84260000  0.79970000  0.07710000  1
  C  C318  1  0.85920000  0.91270000  0.14200000  1
  C  C319  1  0.86010000  0.31990000  0.52250000  1
  C  C320  1  0.87240000  0.21710000  0.07030000  1
  C  C321  1  0.87530000  0.00340000  0.43130000  1
  C  C322  1  0.87530000  0.77350000  0.32010000  1
  C  C323  1  0.87700000  0.26490000  0.57130000  1
  C  C324  1  0.88320000  0.79780000  0.81870000  1
  C  C325  1  0.88840000  0.70660000  0.28000000  1
  C  C326  1  0.90570000  0.27860000  0.95350000  1
  C  C327  1  0.90630000  0.31150000  0.46800000  1
  C  C328  1  0.90780000  0.92570000  0.63080000  1
  C  C329  1  0.91270000  0.85920000  0.85800000  1
  C  C330  1  0.92570000  0.90780000  0.36920000  1
  C  C331  1  0.93360000  0.20030000  0.56020000  1
  C  C332  1  0.93440000  0.83630000  0.32540000  1
  C  C333  1  0.94270000  0.18880000  0.03720000  1
  C  C334  1  0.95680000  0.70630000  0.24170000  1
  C  C335  1  0.96040000  0.22010000  0.97900000  1
  C  C336  1  0.96110000  0.24460000  0.46390000  1
  C  C337  1  0.97910000  0.23170000  0.74900000  1
  C  C338  1  0.99350000  0.16510000  0.78870000  1
  C  C339  1  0.99660000  0.12470000  0.06870000  1
  N  N340  1  0.00830000  0.95590000  0.56630000  1
  N  N341  1  0.01050000  0.05270000  0.89460000  1
  N  N342  1  0.02360000  0.81250000  0.00910000  1
  N  N343  1  0.04410000  0.99170000  0.93370000  1
  N  N344  1  0.05270000  0.01050000  0.10540000  1
  N  N345  1  0.05980000  0.14700000  0.10820000  1
  N  N346  1  0.08120000  0.23100000  0.12670000  1
  N  N347  1  0.11940000  0.12550000  0.58840000  1
  N  N348  1  0.12550000  0.11940000  0.41160000  1
  N  N349  1  0.14700000  0.05980000  0.89180000  1
  N  N350  1  0.18750000  0.97640000  0.49090000  1
  N  N351  1  0.23100000  0.08120000  0.87330000  1
  N  N352  1  0.26900000  0.58120000  0.37670000  1
  N  N353  1  0.31250000  0.47640000  0.75910000  1
  N  N354  1  0.35300000  0.55980000  0.35820000  1
  N  N355  1  0.37450000  0.61940000  0.83840000  1
  N  N356  1  0.38060000  0.62550000  0.66160000  1
  N  N357  1  0.41880000  0.73100000  0.12330000  1
  N  N358  1  0.44020000  0.64700000  0.14180000  1
  N  N359  1  0.44730000  0.51050000  0.14460000  1
  N  N360  1  0.45590000  0.49170000  0.31630000  1
  N  N361  1  0.47640000  0.31250000  0.24090000  1
  N  N362  1  0.48950000  0.55270000  0.35540000  1
  N  N363  1  0.49170000  0.45590000  0.68370000  1
  N  N364  1  0.50830000  0.54410000  0.18370000  1
  N  N365  1  0.51050000  0.44730000  0.85540000  1
  N  N366  1  0.52360000  0.68750000  0.74090000  1
  N  N367  1  0.54410000  0.50830000  0.81630000  1
  N  N368  1  0.55270000  0.48950000  0.64460000  1
  N  N369  1  0.55980000  0.35300000  0.64180000  1
  N  N370  1  0.58120000  0.26900000  0.62330000  1
  N  N371  1  0.61940000  0.37450000  0.16160000  1
  N  N372  1  0.62550000  0.38060000  0.33840000  1
  N  N373  1  0.64700000  0.44020000  0.85820000  1
  N  N374  1  0.68750000  0.52360000  0.25910000  1
  N  N375  1  0.73100000  0.41880000  0.87670000  1
  N  N376  1  0.76900000  0.91880000  0.37330000  1
  N  N377  1  0.81250000  0.02360000  0.99090000  1
  N  N378  1  0.85300000  0.94020000  0.39180000  1
  N  N379  1  0.87450000  0.88060000  0.91160000  1
  N  N380  1  0.88060000  0.87450000  0.08840000  1
  N  N381  1  0.91880000  0.76900000  0.62670000  1
  N  N382  1  0.94020000  0.85300000  0.60820000  1
  N  N383  1  0.94730000  0.98950000  0.60540000  1
  N  N384  1  0.95590000  0.00830000  0.43370000  1
  N  N385  1  0.97640000  0.18750000  0.50910000  1
  N  N386  1  0.98950000  0.94730000  0.39460000  1
  N  N387  1  0.99170000  0.04410000  0.06630000  1
