# generated using pymatgen
data_La3P4(CO3)8
_symmetry_space_group_name_H-M   'P 1'
_cell_length_a   11.11550000
_cell_length_b   13.46790000
_cell_length_c   16.01674985
_cell_angle_alpha   114.86161287
_cell_angle_beta   110.30406637
_cell_angle_gamma   90.00000000
_symmetry_Int_Tables_number   1
_chemical_formula_structural   La3P4(CO3)8
_chemical_formula_sum   'La6 P8 C16 O48'
_cell_volume   2010.14944432
_cell_formula_units_Z   2
loop_
 _symmetry_equiv_pos_site_id
 _symmetry_equiv_pos_as_xyz
  1  'x, y, z'
loop_
 _atom_site_type_symbol
 _atom_site_label
 _atom_site_symmetry_multiplicity
 _atom_site_fract_x
 _atom_site_fract_y
 _atom_site_fract_z
 _atom_site_occupancy
  La  La0  1  0.98269000  0.37069000  0.44138000  1
  La  La1  1  0.54640000  0.00000000  0.00000000  1
  La  La2  1  0.54131000  0.62931000  0.55862000  1
  La  La3  1  0.48269000  0.07069000  0.44138000  1
  La  La4  1  0.04640000  1.00000000  1.00000000  1
  La  La5  1  0.04131000  0.92931000  0.55862000  1
  P  P6  1  0.98150000  0.69600000  0.81280000  1
  P  P7  1  0.72260000  0.99740000  0.60320000  1
  P  P8  1  0.66870000  0.88320000  0.18720000  1
  P  P9  1  0.61940000  0.39420000  0.39680000  1
  P  P10  1  0.48150000  0.11680000  0.81280000  1
  P  P11  1  0.22260000  0.60580000  0.60320000  1
  P  P12  1  0.16870000  0.30400000  0.18720000  1
  P  P13  1  0.11940000  0.00260000  0.39680000  1
  C  C14  1  0.96140000  0.67010000  0.53520000  1
  C  C15  1  0.92620000  0.13490000  0.46480000  1
  C  C16  1  0.87510000  0.74130000  0.72620000  1
  C  C17  1  0.80300000  0.81070000  0.78740000  1
  C  C18  1  0.64890000  0.01510000  0.27380000  1
  C  C19  1  0.59910000  0.87550000  0.54380000  1
  C  C20  1  0.55530000  0.33170000  0.45620000  1
  C  C21  1  0.51560000  0.02330000  0.21260000  1
  C  C22  1  0.46140000  0.86510000  0.53520000  1
  C  C23  1  0.42620000  0.32990000  0.46480000  1
  C  C24  1  0.37510000  0.98490000  0.72620000  1
  C  C25  1  0.30300000  0.97670000  0.78740000  1
  C  C26  1  0.14890000  0.25870000  0.27380000  1
  C  C27  1  0.09910000  0.66830000  0.54380000  1
  C  C28  1  0.05530000  0.12450000  0.45620000  1
  C  C29  1  0.01560000  0.18930000  0.21260000  1
  O  O30  1  0.95800000  0.18680000  0.26740000  1
  O  O31  1  0.94350000  0.17560000  0.12640000  1
  O  O32  1  0.90180000  0.57690000  0.51480000  1
  O  O33  1  0.89270000  0.74490000  0.54080000  1
  O  O34  1  0.88800000  0.63280000  0.83420000  1
  O  O35  1  0.88700000  0.06210000  0.48520000  1
  O  O36  1  0.85190000  0.20410000  0.45920000  1
  O  O37  1  0.84730000  0.95560000  0.59200000  1
  O  O38  1  0.81710000  0.82440000  0.87360000  1
  O  O39  1  0.80620000  0.86810000  0.24040000  1
  O  O40  1  0.78730000  0.64490000  0.64760000  1
  O  O41  1  0.75530000  0.36360000  0.40800000  1
  O  O42  1  0.73220000  0.07020000  0.71020000  1
  O  O43  1  0.69060000  0.81320000  0.73260000  1
  O  O44  1  0.68680000  0.07560000  0.55340000  1
  O  O45  1  0.66460000  0.78790000  0.54520000  1
  O  O46  1  0.65830000  0.89250000  0.09260000  1
  O  O47  1  0.63970000  0.99730000  0.35240000  1
  O  O48  1  0.63340000  0.52220000  0.44660000  1
  O  O49  1  0.61940000  0.24270000  0.45480000  1
  O  O50  1  0.56580000  0.13190000  0.75960000  1
  O  O51  1  0.56570000  0.10750000  0.90740000  1
  O  O52  1  0.55380000  0.79860000  0.16580000  1
  O  O53  1  0.52200000  0.36000000  0.28980000  1
  O  O54  1  0.45800000  0.08060000  0.26740000  1
  O  O55  1  0.44350000  0.95080000  0.12640000  1
  O  O56  1  0.40180000  0.93790000  0.51480000  1
  O  O57  1  0.39270000  0.79590000  0.54080000  1
  O  O58  1  0.38800000  0.20140000  0.83420000  1
  O  O59  1  0.38700000  0.42310000  0.48520000  1
  O  O60  1  0.35190000  0.25510000  0.45920000  1
  O  O61  1  0.34730000  0.63640000  0.59200000  1
  O  O62  1  0.31710000  0.04920000  0.87360000  1
  O  O63  1  0.30620000  0.37230000  0.24040000  1
  O  O64  1  0.28730000  0.00270000  0.64760000  1
  O  O65  1  0.25530000  0.04440000  0.40800000  1
  O  O66  1  0.23220000  0.64000000  0.71020000  1
  O  O67  1  0.19060000  0.91940000  0.73260000  1
  O  O68  1  0.18680000  0.47780000  0.55340000  1
  O  O69  1  0.16460000  0.75730000  0.54520000  1
  O  O70  1  0.15830000  0.20010000  0.09260000  1
  O  O71  1  0.13970000  0.35510000  0.35240000  1
  O  O72  1  0.13340000  0.92440000  0.44660000  1
  O  O73  1  0.11940000  0.21210000  0.45480000  1
  O  O74  1  0.06580000  0.62770000  0.75960000  1
  O  O75  1  0.06570000  0.79990000  0.90740000  1
  O  O76  1  0.05380000  0.36720000  0.16580000  1
  O  O77  1  0.02200000  0.92980000  0.28980000  1
