# generated using pymatgen
data_ZnH44Ir2C68(NO)8
_symmetry_space_group_name_H-M   'P 1'
_cell_length_a   17.14300000
_cell_length_b   17.14300000
_cell_length_c   27.36559070
_cell_angle_alpha   108.25349974
_cell_angle_beta   108.25349974
_cell_angle_gamma   90.00000000
_symmetry_Int_Tables_number   1
_chemical_formula_structural   ZnH44Ir2C68(NO)8
_chemical_formula_sum   'Zn4 H176 Ir8 C272 N32 O32'
_cell_volume   7210.21486262
_cell_formula_units_Z   4
loop_
 _symmetry_equiv_pos_site_id
 _symmetry_equiv_pos_as_xyz
  1  'x, y, z'
loop_
 _atom_site_type_symbol
 _atom_site_label
 _atom_site_symmetry_multiplicity
 _atom_site_fract_x
 _atom_site_fract_y
 _atom_site_fract_z
 _atom_site_occupancy
  C  C0  1  0.34270000  0.61010000  0.68020000  1
  C  C1  1  0.84270000  0.57010000  0.68020000  1
  C  C2  1  0.32420000  0.64320000  0.64060000  1
  C  C3  1  0.82420000  0.49740000  0.64060000  1
  C  C4  1  0.39640000  0.55010000  0.77880000  1
  C  C5  1  0.89640000  0.72870000  0.77880000  1
  C  C6  1  0.60674000  0.96684000  0.19508000  1
  C  C7  1  0.10674000  0.72824000  0.19508000  1
  C  C8  1  0.70543000  0.88503000  0.39186000  1
  C  C9  1  0.20543000  0.00683000  0.39186000  1
  C  C10  1  0.42400000  0.53000000  0.82220000  1
  C  C11  1  0.92400000  0.79220000  0.82220000  1
  C  C12  1  0.68745000  0.90935000  0.34670000  1
  C  C13  1  0.18745000  0.93735000  0.34670000  1
  C  C14  1  0.63590000  0.95050000  0.24160000  1
  C  C15  1  0.13590000  0.79110000  0.24160000  1
  C  C16  1  0.20156000  0.39396000  0.31052000  1
  C  C17  1  0.70156000  0.41656000  0.31052000  1
  C  C18  1  0.17842000  0.41712000  0.26064000  1
  C  C19  1  0.67842000  0.34352000  0.26064000  1
  C  C20  1  0.25277000  0.34377000  0.39994000  1
  C  C21  1  0.75277000  0.55617000  0.39994000  1
  C  C22  1  0.14191000  0.45211000  0.16582000  1
  C  C23  1  0.64191000  0.21371000  0.16582000  1
  C  C24  1  0.28655000  0.31725000  0.44890000  1
  C  C25  1  0.78655000  0.63165000  0.44890000  1
  C  C26  1  0.42200000  0.62440000  0.71780000  1
  C  C27  1  0.92200000  0.59340000  0.71780000  1
  C  C28  1  0.38390000  0.69340000  0.63780000  1
  C  C29  1  0.88390000  0.44440000  0.63780000  1
  C  C30  1  0.44960000  0.59410000  0.76520000  1
  C  C31  1  0.94960000  0.67110000  0.76520000  1
  C  C32  1  0.12363000  0.46613000  0.11186000  1
  C  C33  1  0.62363000  0.14573000  0.11186000  1
  C  C34  1  0.01190000  0.24720000  0.87500000  1
  C  C35  1  0.51190000  0.12780000  0.87500000  1
  C  C36  1  0.50470000  0.55490000  0.85860000  1
  C  C37  1  0.00470000  0.80370000  0.85860000  1
  C  C38  1  0.66590000  0.75400000  0.16320000  1
  C  C39  1  0.16590000  0.90920000  0.16320000  1
  C  C40  1  0.89573000  0.87363000  0.61186000  1
  C  C41  1  0.39573000  0.23823000  0.61186000  1
  C  C42  1  0.00260000  0.24980000  0.82460000  1
  C  C43  1  0.50260000  0.07480000  0.82460000  1
  C  C44  1  0.56725000  0.91235000  0.94890000  1
  C  C45  1  0.06725000  0.53655000  0.94890000  1
  C  C46  1  0.71050000  0.75050000  0.21340000  1
  C  C47  1  0.21050000  0.96290000  0.21340000  1
  C  C48  1  0.29449000  0.32879000  0.36278000  1
  C  C49  1  0.79449000  0.53399000  0.36278000  1
  C  C50  1  0.06330000  0.19530000  0.89440000  1
  C  C51  1  0.56330000  0.19910000  0.89440000  1
  C  C52  1  0.78000000  0.14820000  0.32220000  1
  C  C53  1  0.28000000  0.67400000  0.32220000  1
  C  C54  1  0.21612000  0.42162000  0.18704000  1
  C  C55  1  0.71612000  0.26542000  0.18704000  1
  C  C56  1  0.46069000  0.70699000  0.67458000  1
  C  C57  1  0.96069000  0.46759000  0.67458000  1
  C  C58  1  0.19440000  0.13390000  0.13780000  1
  C  C59  1  0.69440000  0.50390000  0.13780000  1
  C  C60  1  0.80490000  0.10390000  0.35860000  1
  C  C61  1  0.30490000  0.75470000  0.35860000  1
  C  C62  1  0.69470000  0.80020000  0.13760000  1
  C  C63  1  0.19470000  0.83740000  0.13760000  1
  C  C64  1  0.21759000  0.21069000  0.17458000  1
  C  C65  1  0.71759000  0.46389000  0.17458000  1
  C  C66  1  0.47824000  0.35674000  0.69508000  1
  C  C67  1  0.97824000  0.83834000  0.69508000  1
  C  C68  1  0.96371000  0.89191000  0.66582000  1
  C  C69  1  0.46371000  0.27391000  0.66582000  1
  C  C70  1  0.53428000  0.61628000  0.79696000  1
  C  C71  1  0.03428000  0.68068000  0.79696000  1
  C  C72  1  0.55990000  0.59950000  0.84440000  1
  C  C73  1  0.05990000  0.74490000  0.84440000  1
  C  C74  1  0.00050000  0.25290000  0.71340000  1
  C  C75  1  0.59377000  0.89717000  0.89994000  1
  C  C76  1  0.09377000  0.50277000  0.89994000  1
  C  C77  1  0.50050000  0.96050000  0.71340000  1
  C  C78  1  0.57879000  0.81829000  0.86278000  1
  C  C79  1  0.07879000  0.54449000  0.86278000  1
  C  C80  1  0.04910000  0.20350000  0.79540000  1
  C  C81  1  0.54910000  0.09190000  0.79540000  1
  C  C82  1  0.80010000  0.13240000  0.27880000  1
  C  C83  1  0.30010000  0.64640000  0.27880000  1
  C  C84  1  0.82480000  0.75260000  0.32460000  1
  C  C85  1  0.32480000  0.07200000  0.32460000  1
  C  C86  1  0.78480000  0.80010000  0.24140000  1
  C  C87  1  0.28480000  0.94130000  0.24140000  1
  C  C88  1  0.54110000  0.38590000  0.74160000  1
  C  C89  1  0.04110000  0.85570000  0.74160000  1
  C  C90  1  0.01542000  0.96612000  0.68704000  1
  C  C91  1  0.51542000  0.22092000  0.68704000  1
  C  C92  1  0.00400000  0.24730000  0.66320000  1
  C  C93  1  0.50400000  0.91590000  0.66320000  1
  C  C94  1  0.10680000  0.14840000  0.86340000  1
  C  C95  1  0.60680000  0.21500000  0.86340000  1
  C  C96  1  0.24740000  0.07420000  0.14060000  1
  C  C97  1  0.74740000  0.56640000  0.14060000  1
  C  C98  1  0.84950000  0.03450000  0.34440000  1
  C  C99  1  0.34950000  0.80990000  0.34440000  1
  C  C100  1  0.05010000  0.20660000  0.74140000  1
  C  C101  1  0.55010000  0.03480000  0.74140000  1
  C  C102  1  0.76800000  0.85180000  0.16500000  1
  C  C103  1  0.26800000  0.81320000  0.16500000  1
  C  C104  1  0.13503000  0.43643000  0.89186000  1
  C  C105  1  0.63503000  0.95543000  0.89186000  1
  C  C106  1  0.87780000  0.76190000  0.37500000  1
  C  C107  1  0.37780000  0.11310000  0.37500000  1
  C  C108  1  0.84190000  0.79910000  0.29540000  1
  C  C109  1  0.34190000  0.99630000  0.29540000  1
  C  C110  1  0.81450000  0.85210000  0.21800000  1
  C  C111  1  0.31450000  0.86590000  0.21800000  1
  C  C112  1  0.84410000  0.06560000  0.26520000  1
  C  C113  1  0.34410000  0.69960000  0.26520000  1
  C  C114  1  0.09352000  0.92842000  0.76064000  1
  C  C115  1  0.59352000  0.33222000  0.76064000  1
  C  C116  1  0.39840000  0.50660000  0.36340000  1
  C  C117  1  0.89840000  0.35680000  0.36340000  1
  C  C118  1  0.86628000  0.01268000  0.29696000  1
  C  C119  1  0.36628000  0.78428000  0.29696000  1
  C  C120  1  0.32010000  0.09270000  0.18020000  1
  C  C121  1  0.82010000  0.58750000  0.18020000  1
  C  C122  1  0.56320000  0.51800000  0.66500000  1
  C  C123  1  0.06320000  0.64700000  0.66500000  1
  C  C124  1  0.05020000  0.19290000  0.63760000  1
  C  C125  1  0.55020000  0.94470000  0.63760000  1
  C  C126  1  0.34340000  0.17200000  0.21780000  1
  C  C127  1  0.84340000  0.54580000  0.21780000  1
  C  C128  1  0.15935000  0.40925000  0.84670000  1
  C  C129  1  0.65935000  0.93745000  0.84670000  1
  C  C130  1  0.64396000  0.85896000  0.81052000  1
  C  C131  1  0.14396000  0.45156000  0.81052000  1
  C  C132  1  0.10210000  0.15350000  0.71800000  1
  C  C133  1  0.60210000  0.06450000  0.71800000  1
  C  C134  1  0.44530000  0.58110000  0.39440000  1
  C  C135  1  0.94530000  0.31330000  0.39440000  1
  C  C136  1  0.94910000  0.81330000  0.39440000  1
  C  C137  1  0.44910000  0.08110000  0.39440000  1
  C  C138  1  0.61590000  0.56450000  0.71800000  1
  C  C139  1  0.11590000  0.65350000  0.71800000  1
  C  C140  1  0.16656000  0.95156000  0.81052000  1
  C  C141  1  0.66656000  0.35896000  0.81052000  1
  C  C142  1  0.68735000  0.43745000  0.84670000  1
  C  C143  1  0.18735000  0.90925000  0.84670000  1
  C  C144  1  0.87440000  0.04580000  0.21780000  1
  C  C145  1  0.37440000  0.67200000  0.21780000  1
  C  C146  1  0.58740000  0.44470000  0.63760000  1
  C  C147  1  0.08740000  0.69290000  0.63760000  1
  C  C148  1  0.10180000  0.14700000  0.66500000  1
  C  C149  1  0.60180000  0.01800000  0.66500000  1
  C  C150  1  0.86010000  0.08750000  0.18020000  1
  C  C151  1  0.36010000  0.59270000  0.18020000  1
  C  C152  1  0.43068000  0.28428000  0.29696000  1
  C  C153  1  0.93068000  0.51268000  0.29696000  1
  C  C154  1  0.96500000  0.85680000  0.36340000  1
  C  C155  1  0.46500000  0.00660000  0.36340000  1
  C  C156  1  0.66712000  0.83222000  0.76064000  1
  C  C157  1  0.16712000  0.42842000  0.76064000  1
  C  C158  1  0.42110000  0.19960000  0.26520000  1
  C  C159  1  0.92110000  0.56560000  0.26520000  1
  C  C160  1  0.40350000  0.36590000  0.21800000  1
  C  C161  1  0.90350000  0.35210000  0.21800000  1
  C  C162  1  0.45350000  0.49630000  0.29540000  1
  C  C163  1  0.95350000  0.29910000  0.29540000  1
  C  C164  1  0.49720000  0.61310000  0.37500000  1
  C  C165  1  0.99720000  0.26190000  0.37500000  1
  C  C166  1  0.75683000  0.45543000  0.89186000  1
  C  C167  1  0.25683000  0.93643000  0.89186000  1
  C  C168  1  0.39700000  0.31320000  0.16500000  1
  C  C169  1  0.89700000  0.35180000  0.16500000  1
  C  C170  1  0.69130000  0.53480000  0.74140000  1
  C  C171  1  0.19130000  0.70660000  0.74140000  1
  C  C172  1  0.49490000  0.30990000  0.34440000  1
  C  C173  1  0.99490000  0.53450000  0.34440000  1
  C  C174  1  0.89320000  0.06640000  0.14060000  1
  C  C175  1  0.39320000  0.57420000  0.14060000  1
  C  C176  1  0.75660000  0.71500000  0.86340000  1
  C  C177  1  0.25660000  0.64840000  0.86340000  1
  C  C178  1  0.65920000  0.41590000  0.66320000  1
  C  C179  1  0.15920000  0.74730000  0.66320000  1
  C  C180  1  0.67162000  0.72092000  0.68704000  1
  C  C181  1  0.17162000  0.46612000  0.68704000  1
  C  C182  1  0.20050000  0.35570000  0.74160000  1
  C  C183  1  0.70050000  0.88590000  0.74160000  1
  C  C184  1  0.45660000  0.44130000  0.24140000  1
  C  C185  1  0.95660000  0.30010000  0.24140000  1
  C  C186  1  0.49980000  0.57200000  0.32460000  1
  C  C187  1  0.99980000  0.25260000  0.32460000  1
  C  C188  1  0.47870000  0.14640000  0.27880000  1
  C  C189  1  0.97870000  0.63240000  0.27880000  1
  C  C190  1  0.74630000  0.59190000  0.79540000  1
  C  C191  1  0.24630000  0.70350000  0.79540000  1
  C  C192  1  0.28399000  0.04449000  0.86278000  1
  C  C193  1  0.78399000  0.31829000  0.86278000  1
  C  C194  1  0.30617000  0.00277000  0.89994000  1
  C  C195  1  0.71290000  0.46050000  0.71340000  1
  C  C196  1  0.21290000  0.75290000  0.71340000  1
  C  C197  1  0.80617000  0.39717000  0.89994000  1
  C  C198  1  0.28450000  0.24490000  0.84440000  1
  C  C199  1  0.78450000  0.09950000  0.84440000  1
  C  C200  1  0.26268000  0.18068000  0.79696000  1
  C  C201  1  0.76268000  0.11628000  0.79696000  1
  C  C202  1  0.70211000  0.77391000  0.66582000  1
  C  C203  1  0.20211000  0.39191000  0.66582000  1
  C  C204  1  0.21684000  0.33834000  0.69508000  1
  C  C205  1  0.71684000  0.85674000  0.69508000  1
  C  C206  1  0.95699000  0.96389000  0.17458000  1
  C  C207  1  0.45699000  0.71069000  0.17458000  1
  C  C208  1  0.44290000  0.33740000  0.13760000  1
  C  C209  1  0.94290000  0.30020000  0.13760000  1
  C  C210  1  0.55370000  0.25470000  0.35860000  1
  C  C211  1  0.05370000  0.60390000  0.35860000  1
  C  C212  1  0.94340000  0.00390000  0.13780000  1
  C  C213  1  0.44340000  0.63390000  0.13780000  1
  C  C214  1  0.21389000  0.96759000  0.67458000  1
  C  C215  1  0.71389000  0.20699000  0.67458000  1
  C  C216  1  0.97092000  0.76542000  0.18704000  1
  C  C217  1  0.47092000  0.92162000  0.18704000  1
  C  C218  1  0.54220000  0.17400000  0.32220000  1
  C  C219  1  0.04220000  0.64820000  0.32220000  1
  C  C220  1  0.83110000  0.69910000  0.89440000  1
  C  C221  1  0.33110000  0.69530000  0.89440000  1
  C  C222  1  0.06829000  0.03399000  0.36278000  1
  C  C223  1  0.56829000  0.82879000  0.36278000  1
  C  C224  1  0.50290000  0.46290000  0.21340000  1
  C  C225  1  0.00290000  0.25050000  0.21340000  1
  C  C226  1  0.38165000  0.03655000  0.94890000  1
  C  C227  1  0.88165000  0.41235000  0.94890000  1
  C  C228  1  0.82200000  0.57480000  0.82460000  1
  C  C229  1  0.32200000  0.74980000  0.82460000  1
  C  C230  1  0.71613000  0.73823000  0.61186000  1
  C  C231  1  0.21613000  0.37363000  0.61186000  1
  C  C232  1  0.49730000  0.40920000  0.16320000  1
  C  C233  1  0.99730000  0.25400000  0.16320000  1
  C  C234  1  0.35390000  0.30370000  0.85860000  1
  C  C235  1  0.85390000  0.05490000  0.85860000  1
  C  C236  1  0.86310000  0.62780000  0.87500000  1
  C  C237  1  0.36310000  0.74720000  0.87500000  1
  C  C238  1  0.98823000  0.64573000  0.11186000  1
  C  C239  1  0.48823000  0.96613000  0.11186000  1
  C  C240  1  0.31560000  0.17110000  0.76520000  1
  C  C241  1  0.81560000  0.09410000  0.76520000  1
  C  C242  1  0.25390000  0.94440000  0.63780000  1
  C  C243  1  0.75390000  0.19340000  0.63780000  1
  C  C244  1  0.29580000  0.09340000  0.71780000  1
  C  C245  1  0.79580000  0.12440000  0.71780000  1
  C  C246  1  0.16235000  0.13165000  0.44890000  1
  C  C247  1  0.66235000  0.81725000  0.44890000  1
  C  C248  1  0.02391000  0.71371000  0.16582000  1
  C  C249  1  0.52391000  0.95211000  0.16582000  1
  C  C250  1  0.14717000  0.05617000  0.39994000  1
  C  C251  1  0.64717000  0.84377000  0.39994000  1
  C  C252  1  0.08222000  0.84352000  0.26064000  1
  C  C253  1  0.58222000  0.91712000  0.26064000  1
  C  C254  1  0.10896000  0.91656000  0.31052000  1
  C  C255  1  0.60896000  0.89396000  0.31052000  1
  C  C256  1  0.60570000  0.29110000  0.24160000  1
  C  C257  1  0.10570000  0.45050000  0.24160000  1
  C  C258  1  0.65925000  0.43735000  0.34670000  1
  C  C259  1  0.15925000  0.40935000  0.34670000  1
  C  C260  1  0.39820000  0.29220000  0.82220000  1
  C  C261  1  0.89820000  0.03000000  0.82220000  1
  C  C262  1  0.68643000  0.50683000  0.39186000  1
  C  C263  1  0.18643000  0.38503000  0.39186000  1
  C  C264  1  0.58834000  0.22824000  0.19508000  1
  C  C265  1  0.08834000  0.46684000  0.19508000  1
  C  C266  1  0.38240000  0.22870000  0.77880000  1
  C  C267  1  0.88240000  0.05010000  0.77880000  1
  C  C268  1  0.31640000  0.99740000  0.64060000  1
  C  C269  1  0.81640000  0.14320000  0.64060000  1
  C  C270  1  0.33750000  0.07010000  0.68020000  1
  C  C271  1  0.83750000  0.11010000  0.68020000  1
  H  H272  1  0.94080000  0.99740000  0.82960000  1
  H  H273  1  0.44080000  0.33220000  0.82960000  1
  H  H274  1  0.98340000  0.28040000  0.89600000  1
  H  H275  1  0.48340000  0.11560000  0.89600000  1
  H  H276  1  0.84380000  0.13260000  0.61520000  1
  H  H277  1  0.34380000  0.98260000  0.61520000  1
  H  H278  1  0.91540000  0.03540000  0.75680000  1
  H  H279  1  0.41540000  0.22140000  0.75680000  1
  H  H280  1  0.88050000  0.07700000  0.68260000  1
  H  H281  1  0.38050000  0.10560000  0.68260000  1
  H  H282  1  0.61400000  0.72390000  0.14520000  1
  H  H283  1  0.11400000  0.92130000  0.14520000  1
  H  H284  1  0.75860000  0.89730000  0.41700000  1
  H  H285  1  0.25860000  0.01970000  0.41700000  1
  H  H286  1  0.64290000  0.98840000  0.18220000  1
  H  H287  1  0.14290000  0.69380000  0.18220000  1
  H  H288  1  0.72880000  0.93640000  0.34080000  1
  H  H289  1  0.22880000  0.90440000  0.34080000  1
  H  H290  1  0.96540000  0.28240000  0.80980000  1
  H  H291  1  0.46540000  0.02740000  0.80980000  1
  H  H292  1  0.69220000  0.96140000  0.26140000  1
  H  H293  1  0.19220000  0.80000000  0.26140000  1
  H  H294  1  0.37140000  0.71770000  0.61060000  1
  H  H295  1  0.87140000  0.39290000  0.61060000  1
  H  H296  1  0.52180000  0.54290000  0.89100000  1
  H  H297  1  0.02180000  0.84810000  0.89100000  1
  H  H298  1  0.69140000  0.71590000  0.22840000  1
  H  H299  1  0.19140000  0.01250000  0.22840000  1
  H  H300  1  0.24740000  0.63880000  0.32960000  1
  H  H301  1  0.74740000  0.19080000  0.32960000  1
  H  H302  1  0.14290000  0.12140000  0.11060000  1
  H  H303  1  0.64290000  0.48920000  0.11060000  1
  H  H304  1  0.18050000  0.25010000  0.17260000  1
  H  H305  1  0.68050000  0.42250000  0.17260000  1
  H  H306  1  0.79290000  0.11920000  0.39100000  1
  H  H307  1  0.29290000  0.77180000  0.39100000  1
  H  H308  1  0.96590000  0.28700000  0.72840000  1
  H  H309  1  0.46590000  0.94140000  0.72840000  1
  H  H310  1  0.44380000  0.39290000  0.68220000  1
  H  H311  1  0.94380000  0.78930000  0.68220000  1
  H  H312  1  0.06900000  0.19150000  0.92840000  1
  H  H313  1  0.56900000  0.23690000  0.92840000  1
  H  H314  1  0.66460000  0.79660000  0.10200000  1
  H  H315  1  0.16460000  0.80540000  0.10200000  1
  H  H316  1  0.55160000  0.77700000  0.86880000  1
  H  H317  1  0.05160000  0.59180000  0.86880000  1
  H  H318  1  0.77740000  0.71540000  0.30980000  1
  H  H319  1  0.27740000  0.09440000  0.30980000  1
  H  H320  1  0.97390000  0.28120000  0.64520000  1
  H  H321  1  0.47390000  0.86400000  0.64520000  1
  H  H322  1  0.28540000  0.59140000  0.25680000  1
  H  H323  1  0.78540000  0.16540000  0.25680000  1
  H  H324  1  0.34180000  0.30160000  0.36880000  1
  H  H325  1  0.84180000  0.56720000  0.36880000  1
  H  H326  1  0.50010000  0.74210000  0.67260000  1
  H  H327  1  0.00010000  0.43050000  0.67260000  1
  H  H328  1  0.86560000  0.73340000  0.39600000  1
  H  H329  1  0.36560000  0.16260000  0.39600000  1
  H  H330  1  0.55000000  0.44220000  0.76140000  1
  H  H331  1  0.05000000  0.81920000  0.76140000  1
  H  H332  1  0.25380000  0.41230000  0.16820000  1
  H  H333  1  0.75380000  0.25590000  0.16820000  1
  H  H334  1  0.00590000  0.00380000  0.66820000  1
  H  H335  1  0.50590000  0.16440000  0.66820000  1
  H  H336  1  0.36180000  0.48650000  0.37660000  1
  H  H337  1  0.86180000  0.39010000  0.37660000  1
  H  H338  1  0.73260000  0.59380000  0.11520000  1
  H  H339  1  0.23260000  0.02140000  0.11520000  1
  H  H340  1  0.61390000  0.61720000  0.86800000  1
  H  H341  1  0.11390000  0.75080000  0.86800000  1
  H  H342  1  0.86720000  0.00410000  0.36800000  1
  H  H343  1  0.36720000  0.86390000  0.36800000  1
  H  H344  1  0.14730000  0.40840000  0.91700000  1
  H  H345  1  0.64730000  0.00860000  0.91700000  1
  H  H346  1  0.51360000  0.53630000  0.64900000  1
  H  H347  1  0.01360000  0.61270000  0.64900000  1
  H  H348  1  0.14010000  0.11180000  0.87660000  1
  H  H349  1  0.64010000  0.26480000  0.87660000  1
  H  H350  1  0.78630000  0.88540000  0.14900000  1
  H  H351  1  0.28630000  0.76360000  0.14900000  1
  H  H352  1  0.44150000  0.60940000  0.42840000  1
  H  H353  1  0.94150000  0.31900000  0.42840000  1
  H  H354  1  0.65440000  0.47880000  0.84080000  1
  H  H355  1  0.15440000  0.86200000  0.84080000  1
  H  H356  1  0.32700000  0.55210000  0.18260000  1
  H  H357  1  0.82700000  0.13050000  0.18260000  1
  H  H358  1  0.04660000  0.18740000  0.60200000  1
  H  H359  1  0.54660000  0.91460000  0.60200000  1
  H  H360  1  0.55540000  0.41460000  0.60200000  1
  H  H361  1  0.05540000  0.68740000  0.60200000  1
  H  H362  1  0.85560000  0.63050000  0.18260000  1
  H  H363  1  0.35560000  0.05210000  0.18260000  1
  H  H364  1  0.18640000  0.36200000  0.84080000  1
  H  H365  1  0.68640000  0.97880000  0.84080000  1
  H  H366  1  0.98690000  0.81900000  0.42840000  1
  H  H367  1  0.48690000  0.10940000  0.42840000  1
  H  H368  1  0.36270000  0.26360000  0.14900000  1
  H  H369  1  0.86270000  0.38540000  0.14900000  1
  H  H370  1  0.73650000  0.76480000  0.87660000  1
  H  H371  1  0.23650000  0.61180000  0.87660000  1
  H  H372  1  0.13540000  0.11270000  0.64900000  1
  H  H373  1  0.63540000  0.03630000  0.64900000  1
  H  H374  1  0.76970000  0.50860000  0.91700000  1
  H  H375  1  0.26970000  0.90840000  0.91700000  1
  H  H376  1  0.50080000  0.36390000  0.36800000  1
  H  H377  1  0.00080000  0.50410000  0.36800000  1
  H  H378  1  0.25410000  0.25080000  0.86800000  1
  H  H379  1  0.75410000  0.11720000  0.86800000  1
  H  H380  1  0.38260000  0.52140000  0.11520000  1
  H  H381  1  0.88260000  0.09380000  0.11520000  1
  H  H382  1  0.01480000  0.89010000  0.37660000  1
  H  H383  1  0.51480000  0.98650000  0.37660000  1
  H  H384  1  0.66230000  0.66440000  0.66820000  1
  H  H385  1  0.16230000  0.50380000  0.66820000  1
  H  H386  1  0.91440000  0.75590000  0.16820000  1
  H  H387  1  0.41440000  0.91230000  0.16820000  1
  H  H388  1  0.21140000  0.31920000  0.76140000  1
  H  H389  1  0.71140000  0.94220000  0.76140000  1
  H  H390  1  0.53040000  0.66260000  0.39600000  1
  H  H391  1  0.03040000  0.23340000  0.39600000  1
  H  H392  1  0.17250000  0.93050000  0.67260000  1
  H  H393  1  0.67250000  0.24210000  0.67260000  1
  H  H394  1  0.02700000  0.06720000  0.36880000  1
  H  H395  1  0.52700000  0.80160000  0.36880000  1
  H  H396  1  0.97140000  0.66540000  0.25680000  1
  H  H397  1  0.47140000  0.09140000  0.25680000  1
  H  H398  1  0.67130000  0.36400000  0.64520000  1
  H  H399  1  0.17130000  0.78120000  0.64520000  1
  H  H400  1  0.53240000  0.59440000  0.30980000  1
  H  H401  1  0.03240000  0.21540000  0.30980000  1
  H  H402  1  0.31720000  0.09180000  0.86880000  1
  H  H403  1  0.81720000  0.27700000  0.86880000  1
  H  H404  1  0.43740000  0.30540000  0.10200000  1
  H  H405  1  0.93740000  0.29660000  0.10200000  1
  H  H406  1  0.85940000  0.73690000  0.92840000  1
  H  H407  1  0.35940000  0.69150000  0.92840000  1
  H  H408  1  0.23840000  0.28930000  0.68220000  1
  H  H409  1  0.73840000  0.89290000  0.68220000  1
  H  H410  1  0.76250000  0.44140000  0.72840000  1
  H  H411  1  0.26250000  0.78700000  0.72840000  1
  H  H412  1  0.59810000  0.27180000  0.39100000  1
  H  H413  1  0.09810000  0.61920000  0.39100000  1
  H  H414  1  0.99210000  0.92250000  0.17260000  1
  H  H415  1  0.49210000  0.75010000  0.17260000  1
  H  H416  1  0.96770000  0.98920000  0.11060000  1
  H  H417  1  0.46770000  0.62140000  0.11060000  1
  H  H418  1  0.08220000  0.69080000  0.32960000  1
  H  H419  1  0.58220000  0.13880000  0.32960000  1
  H  H420  1  0.53700000  0.51250000  0.22840000  1
  H  H421  1  0.03700000  0.21590000  0.22840000  1
  H  H422  1  0.36920000  0.34810000  0.89100000  1
  H  H423  1  0.86920000  0.04290000  0.89100000  1
  H  H424  1  0.23920000  0.89290000  0.61060000  1
  H  H425  1  0.73920000  0.21770000  0.61060000  1
  H  H426  1  0.56920000  0.30000000  0.26140000  1
  H  H427  1  0.06920000  0.46140000  0.26140000  1
  H  H428  1  0.84440000  0.52740000  0.80980000  1
  H  H429  1  0.34440000  0.78240000  0.80980000  1
  H  H430  1  0.61200000  0.40440000  0.34080000  1
  H  H431  1  0.11200000  0.43640000  0.34080000  1
  H  H432  1  0.53930000  0.19380000  0.18220000  1
  H  H433  1  0.03930000  0.48840000  0.18220000  1
  H  H434  1  0.65840000  0.51970000  0.41700000  1
  H  H435  1  0.15840000  0.39730000  0.41700000  1
  H  H436  1  0.53120000  0.42130000  0.14520000  1
  H  H437  1  0.03120000  0.22390000  0.14520000  1
  H  H438  1  0.80210000  0.60560000  0.68260000  1
  H  H439  1  0.30210000  0.57700000  0.68260000  1
  H  H440  1  0.84140000  0.72140000  0.75680000  1
  H  H441  1  0.34140000  0.53540000  0.75680000  1
  H  H442  1  0.77140000  0.48260000  0.61520000  1
  H  H443  1  0.27140000  0.63260000  0.61520000  1
  H  H444  1  0.91260000  0.61560000  0.89600000  1
  H  H445  1  0.41260000  0.78040000  0.89600000  1
  H  H446  1  0.88880000  0.83220000  0.82960000  1
  H  H447  1  0.38880000  0.49740000  0.82960000  1
  Ir  Ir448  1  0.34027000  0.34879000  0.26616000  1
  Ir  Ir449  1  0.84027000  0.41737000  0.26616000  1
  Ir  Ir450  1  0.59879000  0.67589000  0.76616000  1
  Ir  Ir451  1  0.09879000  0.59027000  0.76616000  1
  Ir  Ir452  1  0.16737000  0.09027000  0.76616000  1
  Ir  Ir453  1  0.66737000  0.17589000  0.76616000  1
  Ir  Ir454  1  0.92589000  0.91737000  0.26616000  1
  Ir  Ir455  1  0.42589000  0.84879000  0.26616000  1
  N  N456  1  0.26960000  0.35170000  0.31860000  1
  N  N457  1  0.76960000  0.46690000  0.31860000  1
  N  N458  1  0.23381000  0.40571000  0.23402000  1
  N  N459  1  0.73381000  0.32831000  0.23402000  1
  N  N460  1  0.48236000  0.67266000  0.71332000  1
  N  N461  1  0.98236000  0.54066000  0.71332000  1
  N  N462  1  0.29066000  0.23236000  0.21332000  1
  N  N463  1  0.79066000  0.48096000  0.21332000  1
  N  N464  1  0.60170000  0.79900000  0.81860000  1
  N  N465  1  0.10170000  0.51960000  0.81860000  1
  N  N466  1  0.10276000  0.15366000  0.81452000  1
  N  N467  1  0.60276000  0.16086000  0.81452000  1
  N  N468  1  0.07831000  0.98381000  0.73402000  1
  N  N469  1  0.57831000  0.25021000  0.73402000  1
  N  N470  1  0.40366000  0.46176000  0.31452000  1
  N  N471  1  0.90366000  0.35276000  0.31452000  1
  N  N472  1  0.91086000  0.85276000  0.31452000  1
  N  N473  1  0.41086000  0.96176000  0.31452000  1
  N  N474  1  0.65571000  0.75021000  0.73402000  1
  N  N475  1  0.15571000  0.48381000  0.73402000  1
  N  N476  1  0.71176000  0.66086000  0.81452000  1
  N  N477  1  0.21176000  0.65366000  0.81452000  1
  N  N478  1  0.21690000  0.01960000  0.81860000  1
  N  N479  1  0.71690000  0.29900000  0.81860000  1
  N  N480  1  0.92266000  0.98096000  0.21332000  1
  N  N481  1  0.42266000  0.73236000  0.21332000  1
  N  N482  1  0.23096000  0.04066000  0.71332000  1
  N  N483  1  0.73096000  0.17266000  0.71332000  1
  N  N484  1  0.00021000  0.82831000  0.23402000  1
  N  N485  1  0.50021000  0.90571000  0.23402000  1
  N  N486  1  0.04900000  0.96690000  0.31860000  1
  N  N487  1  0.54900000  0.85170000  0.31860000  1
  O  O488  1  0.73990000  0.82760000  0.47940000  1
  O  O489  1  0.23990000  0.15180000  0.47940000  1
  O  O490  1  0.04792000  0.45942000  0.08404000  1
  O  O491  1  0.54792000  0.12462000  0.08404000  1
  O  O492  1  0.53592000  0.85562000  0.95724000  1
  O  O493  1  0.03592000  0.60162000  0.95724000  1
  O  O494  1  0.86720000  0.93330000  0.60060000  1
  O  O495  1  0.36720000  0.16730000  0.60060000  1
  O  O496  1  0.87462000  0.79792000  0.58404000  1
  O  O497  1  0.37462000  0.28612000  0.58404000  1
  O  O498  1  0.07760000  0.48950000  0.97940000  1
  O  O499  1  0.57760000  0.98990000  0.97940000  1
  O  O500  1  0.35162000  0.28592000  0.45724000  1
  O  O501  1  0.85162000  0.67132000  0.45724000  1
  O  O502  1  0.18330000  0.48340000  0.10060000  1
  O  O503  1  0.68330000  0.11720000  0.10060000  1
  O  O504  1  0.91730000  0.61720000  0.10060000  1
  O  O505  1  0.41730000  0.98340000  0.10060000  1
  O  O506  1  0.10562000  0.17132000  0.45724000  1
  O  O507  1  0.60562000  0.78592000  0.45724000  1
  O  O508  1  0.90180000  0.48990000  0.97940000  1
  O  O509  1  0.40180000  0.98950000  0.97940000  1
  O  O510  1  0.70942000  0.78612000  0.58404000  1
  O  O511  1  0.20942000  0.29792000  0.58404000  1
  O  O512  1  0.73340000  0.66730000  0.60060000  1
  O  O513  1  0.23340000  0.43330000  0.60060000  1
  O  O514  1  0.42132000  0.10162000  0.95724000  1
  O  O515  1  0.92132000  0.35562000  0.95724000  1
  O  O516  1  0.03612000  0.62462000  0.08404000  1
  O  O517  1  0.53612000  0.95942000  0.08404000  1
  O  O518  1  0.73950000  0.65180000  0.47940000  1
  O  O519  1  0.23950000  0.32760000  0.47940000  1
  Zn  Zn520  1  0.26488000  0.26488000  0.52976000  1
  Zn  Zn521  1  0.76488000  0.76488000  0.52976000  1
  Zn  Zn522  1  0.01488000  0.51488000  0.02976000  1
  Zn  Zn523  1  0.51488000  0.01488000  0.02976000  1
