# generated using pymatgen
data_CdH22C29(NO)4
_symmetry_space_group_name_H-M   'P 1'
_cell_length_a   15.93880000
_cell_length_b   16.18370000
_cell_length_c   28.52000000
_cell_angle_alpha   90.00000000
_cell_angle_beta   90.00000000
_cell_angle_gamma   105.71400000
_symmetry_Int_Tables_number   1
_chemical_formula_structural   CdH22C29(NO)4
_chemical_formula_sum   'Cd8 H176 C232 N32 O32'
_cell_volume   7081.74635254
_cell_formula_units_Z   8
loop_
 _symmetry_equiv_pos_site_id
 _symmetry_equiv_pos_as_xyz
  1  'x, y, z'
loop_
 _atom_site_type_symbol
 _atom_site_label
 _atom_site_symmetry_multiplicity
 _atom_site_fract_x
 _atom_site_fract_y
 _atom_site_fract_z
 _atom_site_occupancy
  Cd  Cd0  1  0.33799000  0.14984000  0.53398000  1
  Cd  Cd1  1  0.33799000  0.64984000  0.96602000  1
  Cd  Cd2  1  0.38001000  0.36392000  0.46619000  1
  Cd  Cd3  1  0.38001000  0.86392000  0.03381000  1
  Cd  Cd4  1  0.61999000  0.13608000  0.96619000  1
  Cd  Cd5  1  0.61999000  0.63608000  0.53381000  1
  Cd  Cd6  1  0.66201000  0.35016000  0.03398000  1
  Cd  Cd7  1  0.66201000  0.85016000  0.46602000  1
  H  H8  1  0.00050000  0.08220000  0.50670000  1
  H  H9  1  0.00050000  0.58220000  0.99330000  1
  H  H10  1  0.03710000  0.08870000  0.01440000  1
  H  H11  1  0.03710000  0.58870000  0.48560000  1
  H  H12  1  0.03980000  0.26890000  0.43650000  1
  H  H13  1  0.03980000  0.76890000  0.06350000  1
  H  H14  1  0.06940000  0.28310000  0.08980000  1
  H  H15  1  0.06940000  0.78310000  0.41020000  1
  H  H16  1  0.08580000  0.25800000  0.60490000  1
  H  H17  1  0.08580000  0.75800000  0.89510000  1
  H  H18  1  0.11220000  0.45360000  0.53510000  1
  H  H19  1  0.11220000  0.95360000  0.96490000  1
  H  H20  1  0.13780000  0.07240000  0.49620000  1
  H  H21  1  0.13780000  0.57240000  0.00380000  1
  H  H22  1  0.18470000  0.26070000  0.43480000  1
  H  H23  1  0.18470000  0.76070000  0.06520000  1
  H  H24  1  0.18980000  0.41120000  0.21510000  1
  H  H25  1  0.18980000  0.91120000  0.28490000  1
  H  H26  1  0.21730000  0.22130000  0.91940000  1
  H  H27  1  0.21730000  0.72130000  0.58060000  1
  H  H28  1  0.22590000  0.23940000  0.59520000  1
  H  H29  1  0.22590000  0.73940000  0.90480000  1
  H  H30  1  0.22870000  0.36650000  0.17350000  1
  H  H31  1  0.22870000  0.86650000  0.32650000  1
  H  H32  1  0.23810000  0.33880000  0.22670000  1
  H  H33  1  0.23810000  0.83880000  0.27330000  1
  H  H34  1  0.23910000  0.02230000  0.80110000  1
  H  H35  1  0.23910000  0.52230000  0.69890000  1
  H  H36  1  0.24570000  0.40830000  0.99900000  1
  H  H37  1  0.24570000  0.90830000  0.50100000  1
  H  H38  1  0.25650000  0.44620000  0.52480000  1
  H  H39  1  0.25650000  0.94620000  0.97520000  1
  H  H40  1  0.28170000  0.11870000  0.78390000  1
  H  H41  1  0.28170000  0.61870000  0.71610000  1
  H  H42  1  0.29420000  0.09220000  0.83700000  1
  H  H43  1  0.29420000  0.59220000  0.66300000  1
  H  H44  1  0.29450000  0.10690000  0.00990000  1
  H  H45  1  0.29450000  0.60690000  0.49010000  1
  H  H46  1  0.31040000  0.49380000  0.11300000  1
  H  H47  1  0.31040000  0.99380000  0.38700000  1
  H  H48  1  0.33280000  0.24670000  0.37020000  1
  H  H49  1  0.33280000  0.74670000  0.12980000  1
  H  H50  1  0.33430000  0.29150000  0.08680000  1
  H  H51  1  0.33430000  0.79150000  0.41320000  1
  H  H52  1  0.34210000  0.39350000  0.30150000  1
  H  H53  1  0.34210000  0.89350000  0.19850000  1
  H  H54  1  0.34500000  0.23570000  0.28960000  1
  H  H55  1  0.34500000  0.73570000  0.21040000  1
  H  H56  1  0.34810000  0.11070000  0.69990000  1
  H  H57  1  0.34810000  0.61070000  0.80010000  1
  H  H58  1  0.36500000  0.19100000  0.20130000  1
  H  H59  1  0.36500000  0.69100000  0.29870000  1
  H  H60  1  0.36640000  0.39940000  0.87140000  1
  H  H61  1  0.36640000  0.89940000  0.62860000  1
  H  H62  1  0.36660000  0.24180000  0.89150000  1
  H  H63  1  0.36660000  0.74180000  0.60850000  1
  H  H64  1  0.38230000  0.12340000  0.13130000  1
  H  H65  1  0.38230000  0.62340000  0.36870000  1
  H  H66  1  0.38650000  0.39670000  0.16260000  1
  H  H67  1  0.38650000  0.89670000  0.33740000  1
  H  H68  1  0.38810000  0.01360000  0.88690000  1
  H  H69  1  0.38810000  0.51360000  0.61310000  1
  H  H70  1  0.39000000  0.33410000  0.80150000  1
  H  H71  1  0.39000000  0.83410000  0.69850000  1
  H  H72  1  0.39030000  0.43050000  0.96850000  1
  H  H73  1  0.39030000  0.93050000  0.53150000  1
  H  H74  1  0.39700000  0.36910000  0.21570000  1
  H  H75  1  0.39700000  0.86910000  0.28430000  1
  H  H76  1  0.40960000  0.28690000  0.71330000  1
  H  H77  1  0.40960000  0.78690000  0.78670000  1
  H  H78  1  0.41140000  0.27050000  0.63190000  1
  H  H79  1  0.41140000  0.77050000  0.86810000  1
  H  H80  1  0.43620000  0.09220000  0.01550000  1
  H  H81  1  0.43620000  0.59220000  0.48450000  1
  H  H82  1  0.44190000  0.17510000  0.77560000  1
  H  H83  1  0.44190000  0.67510000  0.72440000  1
  H  H84  1  0.45230000  0.46100000  0.19720000  1
  H  H85  1  0.45230000  0.96100000  0.30280000  1
  H  H86  1  0.45390000  0.14850000  0.82870000  1
  H  H87  1  0.45390000  0.64850000  0.67130000  1
  H  H88  1  0.47210000  0.08750000  0.47030000  1
  H  H89  1  0.47210000  0.58750000  0.02970000  1
  H  H90  1  0.47570000  0.27690000  0.08630000  1
  H  H91  1  0.47570000  0.77690000  0.41370000  1
  H  H92  1  0.49480000  0.27630000  0.39990000  1
  H  H93  1  0.49480000  0.77630000  0.10010000  1
  H  H94  1  0.49600000  0.38510000  0.28730000  1
  H  H95  1  0.49600000  0.88510000  0.21270000  1
  H  H96  1  0.50400000  0.11490000  0.78730000  1
  H  H97  1  0.50400000  0.61490000  0.71270000  1
  H  H98  1  0.50520000  0.22370000  0.89990000  1
  H  H99  1  0.50520000  0.72370000  0.60010000  1
  H  H100  1  0.52430000  0.22310000  0.58630000  1
  H  H101  1  0.52430000  0.72310000  0.91370000  1
  H  H102  1  0.52790000  0.41250000  0.97030000  1
  H  H103  1  0.52790000  0.91250000  0.52970000  1
  H  H104  1  0.54610000  0.35150000  0.32870000  1
  H  H105  1  0.54610000  0.85150000  0.17130000  1
  H  H106  1  0.54770000  0.03900000  0.69720000  1
  H  H107  1  0.54770000  0.53900000  0.80280000  1
  H  H108  1  0.55810000  0.32490000  0.27560000  1
  H  H109  1  0.55810000  0.82490000  0.22440000  1
  H  H110  1  0.56380000  0.40780000  0.51550000  1
  H  H111  1  0.56380000  0.90780000  0.98450000  1
  H  H112  1  0.58860000  0.22950000  0.13190000  1
  H  H113  1  0.58860000  0.72950000  0.36810000  1
  H  H114  1  0.59040000  0.21310000  0.21330000  1
  H  H115  1  0.59040000  0.71310000  0.28670000  1
  H  H116  1  0.60300000  0.13090000  0.71570000  1
  H  H117  1  0.60300000  0.63090000  0.78430000  1
  H  H118  1  0.60970000  0.06950000  0.46850000  1
  H  H119  1  0.60970000  0.56950000  0.03150000  1
  H  H120  1  0.61000000  0.16590000  0.30150000  1
  H  H121  1  0.61000000  0.66590000  0.19850000  1
  H  H122  1  0.61190000  0.48640000  0.38690000  1
  H  H123  1  0.61190000  0.98640000  0.11310000  1
  H  H124  1  0.61350000  0.10330000  0.66260000  1
  H  H125  1  0.61350000  0.60330000  0.83740000  1
  H  H126  1  0.61770000  0.37660000  0.63130000  1
  H  H127  1  0.61770000  0.87660000  0.86870000  1
  H  H128  1  0.63340000  0.25820000  0.39150000  1
  H  H129  1  0.63340000  0.75820000  0.10850000  1
  H  H130  1  0.63360000  0.10060000  0.37140000  1
  H  H131  1  0.63360000  0.60060000  0.12860000  1
  H  H132  1  0.63500000  0.30900000  0.70130000  1
  H  H133  1  0.63500000  0.80900000  0.79870000  1
  H  H134  1  0.65190000  0.38930000  0.19990000  1
  H  H135  1  0.65190000  0.88930000  0.30010000  1
  H  H136  1  0.65500000  0.26430000  0.78960000  1
  H  H137  1  0.65500000  0.76430000  0.71040000  1
  H  H138  1  0.65790000  0.10650000  0.80150000  1
  H  H139  1  0.65790000  0.60650000  0.69850000  1
  H  H140  1  0.66570000  0.20850000  0.58680000  1
  H  H141  1  0.66570000  0.70850000  0.91320000  1
  H  H142  1  0.66720000  0.25330000  0.87020000  1
  H  H143  1  0.66720000  0.75330000  0.62980000  1
  H  H144  1  0.68960000  0.00620000  0.61300000  1
  H  H145  1  0.68960000  0.50620000  0.88700000  1
  H  H146  1  0.70550000  0.39310000  0.50990000  1
  H  H147  1  0.70550000  0.89310000  0.99010000  1
  H  H148  1  0.70580000  0.40780000  0.33700000  1
  H  H149  1  0.70580000  0.90780000  0.16300000  1
  H  H150  1  0.71830000  0.38130000  0.28390000  1
  H  H151  1  0.71830000  0.88130000  0.21610000  1
  H  H152  1  0.74350000  0.05380000  0.02480000  1
  H  H153  1  0.74350000  0.55380000  0.47520000  1
  H  H154  1  0.75430000  0.09170000  0.49900000  1
  H  H155  1  0.75430000  0.59170000  0.00100000  1
  H  H156  1  0.76090000  0.47770000  0.30110000  1
  H  H157  1  0.76090000  0.97770000  0.19890000  1
  H  H158  1  0.76190000  0.16120000  0.72670000  1
  H  H159  1  0.76190000  0.66120000  0.77330000  1
  H  H160  1  0.77130000  0.13350000  0.67350000  1
  H  H161  1  0.77130000  0.63350000  0.82650000  1
  H  H162  1  0.77410000  0.26060000  0.09520000  1
  H  H163  1  0.77410000  0.76060000  0.40480000  1
  H  H164  1  0.78270000  0.27870000  0.41940000  1
  H  H165  1  0.78270000  0.77870000  0.08060000  1
  H  H166  1  0.81020000  0.08880000  0.71510000  1
  H  H167  1  0.81020000  0.58880000  0.78490000  1
  H  H168  1  0.81530000  0.23930000  0.93480000  1
  H  H169  1  0.81530000  0.73930000  0.56520000  1
  H  H170  1  0.86220000  0.42760000  0.99620000  1
  H  H171  1  0.86220000  0.92760000  0.50380000  1
  H  H172  1  0.88780000  0.04640000  0.03510000  1
  H  H173  1  0.88780000  0.54640000  0.46490000  1
  H  H174  1  0.91420000  0.24200000  0.10490000  1
  H  H175  1  0.91420000  0.74200000  0.39510000  1
  H  H176  1  0.93060000  0.21690000  0.58980000  1
  H  H177  1  0.93060000  0.71690000  0.91020000  1
  H  H178  1  0.96020000  0.23110000  0.93650000  1
  H  H179  1  0.96020000  0.73110000  0.56350000  1
  H  H180  1  0.96290000  0.41130000  0.51440000  1
  H  H181  1  0.96290000  0.91130000  0.98560000  1
  H  H182  1  0.99950000  0.41780000  0.00670000  1
  H  H183  1  0.99950000  0.91780000  0.49330000  1
  C  C184  1  0.02550000  0.12590000  0.99110000  1
  C  C185  1  0.02550000  0.62590000  0.50890000  1
  C  C186  1  0.02940000  0.16750000  0.55850000  1
  C  C187  1  0.02940000  0.66750000  0.94150000  1
  C  C188  1  0.04630000  0.11540000  0.52570000  1
  C  C189  1  0.04630000  0.61540000  0.97430000  1
  C  C190  1  0.06030000  0.32140000  0.06640000  1
  C  C191  1  0.06030000  0.82140000  0.43360000  1
  C  C192  1  0.06110000  0.36370000  0.48580000  1
  C  C193  1  0.06110000  0.86370000  0.01420000  1
  C  C194  1  0.08280000  0.30570000  0.45580000  1
  C  C195  1  0.08280000  0.80570000  0.04420000  1
  C  C196  1  0.09550000  0.21700000  0.58320000  1
  C  C197  1  0.09550000  0.71700000  0.91680000  1
  C  C198  1  0.12520000  0.41490000  0.51300000  1
  C  C199  1  0.12520000  0.91490000  0.98700000  1
  C  C200  1  0.12770000  0.11020000  0.51960000  1
  C  C201  1  0.12770000  0.61020000  0.98040000  1
  C  C202  1  0.17070000  0.30250000  0.45440000  1
  C  C203  1  0.17070000  0.80250000  0.04560000  1
  C  C204  1  0.17950000  0.20710000  0.57620000  1
  C  C205  1  0.17950000  0.70710000  0.92380000  1
  C  C206  1  0.21160000  0.40860000  0.50700000  1
  C  C207  1  0.21160000  0.90860000  0.99300000  1
  C  C208  1  0.22890000  0.18690000  0.94430000  1
  C  C209  1  0.22890000  0.68690000  0.55570000  1
  C  C210  1  0.23750000  0.38690000  0.20590000  1
  C  C211  1  0.23750000  0.88690000  0.29410000  1
  C  C212  1  0.25960000  0.37530000  0.02400000  1
  C  C213  1  0.25960000  0.87530000  0.47600000  1
  C  C214  1  0.28940000  0.07260000  0.80430000  1
  C  C215  1  0.28940000  0.57260000  0.69570000  1
  C  C216  1  0.31590000  0.17560000  0.94980000  1
  C  C217  1  0.31590000  0.67560000  0.55020000  1
  C  C218  1  0.31770000  0.04230000  0.36710000  1
  C  C219  1  0.31770000  0.54230000  0.13290000  1
  C  C220  1  0.31930000  0.13440000  0.43870000  1
  C  C221  1  0.31930000  0.63440000  0.06130000  1
  C  C222  1  0.32220000  0.12390000  0.38610000  1
  C  C223  1  0.32220000  0.62390000  0.11390000  1
  C  C224  1  0.32370000  0.45550000  0.20990000  1
  C  C225  1  0.32370000  0.95550000  0.29010000  1
  C  C226  1  0.32400000  0.03420000  0.31910000  1
  C  C227  1  0.32400000  0.53420000  0.18090000  1
  C  C228  1  0.33150000  0.19250000  0.35690000  1
  C  C229  1  0.33150000  0.69250000  0.14310000  1
  C  C230  1  0.33670000  0.13140000  0.98670000  1
  C  C231  1  0.33670000  0.63140000  0.51330000  1
  C  C232  1  0.33790000  0.10810000  0.29050000  1
  C  C233  1  0.33790000  0.60810000  0.20950000  1
  C  C234  1  0.33850000  0.49400000  0.25890000  1
  C  C235  1  0.33850000  0.99400000  0.24110000  1
  C  C236  1  0.33910000  0.18690000  0.30910000  1
  C  C237  1  0.33910000  0.68690000  0.19090000  1
  C  C238  1  0.34100000  0.05300000  0.61190000  1
  C  C239  1  0.34100000  0.55300000  0.88810000  1
  C  C240  1  0.34580000  0.36410000  0.02680000  1
  C  C241  1  0.34580000  0.86410000  0.47320000  1
  C  C242  1  0.34660000  0.08290000  0.24180000  1
  C  C243  1  0.34660000  0.58290000  0.25820000  1
  C  C244  1  0.34680000  0.45330000  0.30090000  1
  C  C245  1  0.34680000  0.95330000  0.19910000  1
  C  C246  1  0.35600000  0.01060000  0.65800000  1
  C  C247  1  0.35600000  0.51060000  0.84200000  1
  C  C248  1  0.35650000  0.05480000  0.69970000  1
  C  C249  1  0.35650000  0.55480000  0.80030000  1
  C  C250  1  0.36130000  0.13140000  0.20080000  1
  C  C251  1  0.36130000  0.63140000  0.29920000  1
  C  C252  1  0.36210000  0.00180000  0.15700000  1
  C  C253  1  0.36210000  0.50180000  0.34300000  1
  C  C254  1  0.36770000  0.42880000  0.84250000  1
  C  C255  1  0.36770000  0.92880000  0.65750000  1
  C  C256  1  0.36950000  0.01520000  0.74140000  1
  C  C257  1  0.36950000  0.51520000  0.75860000  1
  C  C258  1  0.37020000  0.09050000  0.15930000  1
  C  C259  1  0.37020000  0.59050000  0.34070000  1
  C  C260  1  0.37170000  0.04870000  0.79040000  1
  C  C261  1  0.37170000  0.54870000  0.70960000  1
  C  C262  1  0.37220000  0.45920000  0.38820000  1
  C  C263  1  0.37220000  0.95920000  0.11180000  1
  C  C264  1  0.37340000  0.31730000  0.06250000  1
  C  C265  1  0.37340000  0.81730000  0.43750000  1
  C  C266  1  0.37940000  0.21040000  0.91740000  1
  C  C267  1  0.37940000  0.71040000  0.58260000  1
  C  C268  1  0.38130000  0.38990000  0.80130000  1
  C  C269  1  0.38130000  0.88990000  0.69870000  1
  C  C270  1  0.38200000  0.43410000  0.75950000  1
  C  C271  1  0.38200000  0.93410000  0.74050000  1
  C  C272  1  0.38550000  0.47450000  0.68130000  1
  C  C273  1  0.38550000  0.97450000  0.81870000  1
  C  C274  1  0.39030000  0.46740000  0.63320000  1
  C  C275  1  0.39030000  0.96740000  0.86680000  1
  C  C276  1  0.39320000  0.40910000  0.71080000  1
  C  C277  1  0.39320000  0.90910000  0.78920000  1
  C  C278  1  0.39630000  0.41720000  0.19510000  1
  C  C279  1  0.39630000  0.91720000  0.30490000  1
  C  C280  1  0.39880000  0.38900000  0.61480000  1
  C  C281  1  0.39880000  0.88900000  0.88520000  1
  C  C282  1  0.39910000  0.37540000  0.56240000  1
  C  C283  1  0.39910000  0.87540000  0.93760000  1
  C  C284  1  0.40380000  0.33160000  0.69300000  1
  C  C285  1  0.40380000  0.83160000  0.80700000  1
  C  C286  1  0.40550000  0.32270000  0.64490000  1
  C  C287  1  0.40550000  0.82270000  0.85510000  1
  C  C288  1  0.40580000  0.39840000  0.99330000  1
  C  C289  1  0.40580000  0.89840000  0.50670000  1
  C  C290  1  0.42160000  0.12290000  0.98970000  1
  C  C291  1  0.42160000  0.62290000  0.51030000  1
  C  C292  1  0.45010000  0.12920000  0.79600000  1
  C  C293  1  0.45010000  0.62920000  0.70400000  1
  C  C294  1  0.45800000  0.30880000  0.06210000  1
  C  C295  1  0.45800000  0.80880000  0.43790000  1
  C  C296  1  0.46170000  0.19950000  0.92250000  1
  C  C297  1  0.46170000  0.69950000  0.57750000  1
  C  C298  1  0.48820000  0.38790000  0.99460000  1
  C  C299  1  0.48820000  0.88790000  0.50540000  1
  C  C300  1  0.51180000  0.11210000  0.49460000  1
  C  C301  1  0.51180000  0.61210000  0.00540000  1
  C  C302  1  0.53830000  0.30050000  0.42250000  1
  C  C303  1  0.53830000  0.80050000  0.07750000  1
  C  C304  1  0.54200000  0.19120000  0.56210000  1
  C  C305  1  0.54200000  0.69120000  0.93790000  1
  C  C306  1  0.54990000  0.37080000  0.29600000  1
  C  C307  1  0.54990000  0.87080000  0.20400000  1
  C  C308  1  0.57840000  0.37710000  0.48970000  1
  C  C309  1  0.57840000  0.87710000  0.01030000  1
  C  C310  1  0.59420000  0.10160000  0.49330000  1
  C  C311  1  0.59420000  0.60160000  0.00670000  1
  C  C312  1  0.59450000  0.17730000  0.14490000  1
  C  C313  1  0.59450000  0.67730000  0.35510000  1
  C  C314  1  0.59620000  0.16840000  0.19300000  1
  C  C315  1  0.59620000  0.66840000  0.30700000  1
  C  C316  1  0.60090000  0.12460000  0.06240000  1
  C  C317  1  0.60090000  0.62460000  0.43760000  1
  C  C318  1  0.60120000  0.11100000  0.11480000  1
  C  C319  1  0.60120000  0.61100000  0.38520000  1
  C  C320  1  0.60370000  0.08280000  0.69510000  1
  C  C321  1  0.60370000  0.58280000  0.80490000  1
  C  C322  1  0.60680000  0.09090000  0.21080000  1
  C  C323  1  0.60680000  0.59090000  0.28920000  1
  C  C324  1  0.60970000  0.03260000  0.13320000  1
  C  C325  1  0.60970000  0.53260000  0.36680000  1
  C  C326  1  0.61450000  0.02550000  0.18130000  1
  C  C327  1  0.61450000  0.52550000  0.31870000  1
  C  C328  1  0.61800000  0.06590000  0.25950000  1
  C  C329  1  0.61800000  0.56590000  0.24050000  1
  C  C330  1  0.61870000  0.11010000  0.30130000  1
  C  C331  1  0.61870000  0.61010000  0.19870000  1
  C  C332  1  0.62060000  0.28960000  0.41740000  1
  C  C333  1  0.62060000  0.78960000  0.08260000  1
  C  C334  1  0.62660000  0.18270000  0.56250000  1
  C  C335  1  0.62660000  0.68270000  0.93750000  1
  C  C336  1  0.62780000  0.04080000  0.88820000  1
  C  C337  1  0.62780000  0.54080000  0.61180000  1
  C  C338  1  0.62830000  0.45130000  0.29040000  1
  C  C339  1  0.62830000  0.95130000  0.20960000  1
  C  C340  1  0.62980000  0.40950000  0.65930000  1
  C  C341  1  0.62980000  0.90950000  0.84070000  1
  C  C342  1  0.63050000  0.48480000  0.24140000  1
  C  C343  1  0.63050000  0.98480000  0.25860000  1
  C  C344  1  0.63230000  0.07120000  0.34250000  1
  C  C345  1  0.63230000  0.57120000  0.15750000  1
  C  C346  1  0.63790000  0.49820000  0.65700000  1
  C  C347  1  0.63790000  0.99820000  0.84300000  1
  C  C348  1  0.63870000  0.36860000  0.70080000  1
  C  C349  1  0.63870000  0.86860000  0.79920000  1
  C  C350  1  0.64350000  0.44520000  0.19970000  1
  C  C351  1  0.64350000  0.94520000  0.30030000  1
  C  C352  1  0.64400000  0.48940000  0.15800000  1
  C  C353  1  0.64400000  0.98940000  0.34200000  1
  C  C354  1  0.65320000  0.04670000  0.80090000  1
  C  C355  1  0.65320000  0.54670000  0.69910000  1
  C  C356  1  0.65340000  0.41710000  0.74180000  1
  C  C357  1  0.65340000  0.91710000  0.75820000  1
  C  C358  1  0.65420000  0.13590000  0.52680000  1
  C  C359  1  0.65420000  0.63590000  0.97320000  1
  C  C360  1  0.65900000  0.44700000  0.11190000  1
  C  C361  1  0.65900000  0.94700000  0.38810000  1
  C  C362  1  0.66090000  0.31310000  0.80910000  1
  C  C363  1  0.66090000  0.81310000  0.69090000  1
  C  C364  1  0.66150000  0.00600000  0.75890000  1
  C  C365  1  0.66150000  0.50600000  0.74110000  1
  C  C366  1  0.66210000  0.39190000  0.79050000  1
  C  C367  1  0.66210000  0.89190000  0.70950000  1
  C  C368  1  0.66330000  0.36860000  0.48670000  1
  C  C369  1  0.66330000  0.86860000  0.01330000  1
  C  C370  1  0.66850000  0.30750000  0.85690000  1
  C  C371  1  0.66850000  0.80750000  0.64310000  1
  C  C372  1  0.67600000  0.46580000  0.81910000  1
  C  C373  1  0.67600000  0.96580000  0.68090000  1
  C  C374  1  0.67630000  0.04450000  0.70990000  1
  C  C375  1  0.67630000  0.54450000  0.79010000  1
  C  C376  1  0.67780000  0.37610000  0.88610000  1
  C  C377  1  0.67780000  0.87610000  0.61390000  1
  C  C378  1  0.68070000  0.36560000  0.93870000  1
  C  C379  1  0.68070000  0.86560000  0.56130000  1
  C  C380  1  0.68230000  0.45770000  0.86710000  1
  C  C381  1  0.68230000  0.95770000  0.63290000  1
  C  C382  1  0.68410000  0.32440000  0.44980000  1
  C  C383  1  0.68410000  0.82440000  0.05020000  1
  C  C384  1  0.71060000  0.42740000  0.30430000  1
  C  C385  1  0.71060000  0.92740000  0.19570000  1
  C  C386  1  0.74040000  0.12470000  0.52400000  1
  C  C387  1  0.74040000  0.62470000  0.97600000  1
  C  C388  1  0.76250000  0.11310000  0.70590000  1
  C  C389  1  0.76250000  0.61310000  0.79410000  1
  C  C390  1  0.77110000  0.31310000  0.44430000  1
  C  C391  1  0.77110000  0.81310000  0.05570000  1
  C  C392  1  0.78840000  0.09140000  0.00700000  1
  C  C393  1  0.78840000  0.59140000  0.49300000  1
  C  C394  1  0.82050000  0.29290000  0.07620000  1
  C  C395  1  0.82050000  0.79290000  0.42380000  1
  C  C396  1  0.82930000  0.19750000  0.95440000  1
  C  C397  1  0.82930000  0.69750000  0.54560000  1
  C  C398  1  0.87230000  0.38980000  0.01960000  1
  C  C399  1  0.87230000  0.88980000  0.48040000  1
  C  C400  1  0.87480000  0.08510000  0.01300000  1
  C  C401  1  0.87480000  0.58510000  0.48700000  1
  C  C402  1  0.90450000  0.28300000  0.08320000  1
  C  C403  1  0.90450000  0.78300000  0.41680000  1
  C  C404  1  0.91720000  0.19430000  0.95580000  1
  C  C405  1  0.91720000  0.69430000  0.54420000  1
  C  C406  1  0.93890000  0.13630000  0.98580000  1
  C  C407  1  0.93890000  0.63630000  0.51420000  1
  C  C408  1  0.93970000  0.17860000  0.56640000  1
  C  C409  1  0.93970000  0.67860000  0.93360000  1
  C  C410  1  0.95370000  0.38460000  0.02570000  1
  C  C411  1  0.95370000  0.88460000  0.47430000  1
  C  C412  1  0.97060000  0.33250000  0.05850000  1
  C  C413  1  0.97060000  0.83250000  0.44150000  1
  C  C414  1  0.97450000  0.37410000  0.49110000  1
  C  C415  1  0.97450000  0.87410000  0.00890000  1
  N  N416  1  0.08870000  0.16860000  0.96310000  1
  N  N417  1  0.08870000  0.66860000  0.53690000  1
  N  N418  1  0.12280000  0.36270000  0.04200000  1
  N  N419  1  0.12280000  0.86270000  0.45800000  1
  N  N420  1  0.16800000  0.15070000  0.97280000  1
  N  N421  1  0.16800000  0.65070000  0.52720000  1
  N  N422  1  0.19630000  0.15520000  0.54460000  1
  N  N423  1  0.19630000  0.65520000  0.95540000  1
  N  N424  1  0.20300000  0.34290000  0.05340000  1
  N  N425  1  0.20300000  0.84290000  0.44660000  1
  N  N426  1  0.23380000  0.35380000  0.47840000  1
  N  N427  1  0.23380000  0.85380000  0.02160000  1
  N  N428  1  0.48180000  0.15550000  0.95860000  1
  N  N429  1  0.48180000  0.65550000  0.54140000  1
  N  N430  1  0.48520000  0.15610000  0.52880000  1
  N  N431  1  0.48520000  0.65610000  0.97120000  1
  N  N432  1  0.51480000  0.34390000  0.02880000  1
  N  N433  1  0.51480000  0.84390000  0.47120000  1
  N  N434  1  0.51820000  0.34450000  0.45860000  1
  N  N435  1  0.51820000  0.84450000  0.04140000  1
  N  N436  1  0.76620000  0.14620000  0.97840000  1
  N  N437  1  0.76620000  0.64620000  0.52160000  1
  N  N438  1  0.79700000  0.15710000  0.55340000  1
  N  N439  1  0.79700000  0.65710000  0.94660000  1
  N  N440  1  0.80370000  0.34480000  0.04460000  1
  N  N441  1  0.80370000  0.84480000  0.45540000  1
  N  N442  1  0.83200000  0.34930000  0.47280000  1
  N  N443  1  0.83200000  0.84930000  0.02720000  1
  N  N444  1  0.87720000  0.13730000  0.54200000  1
  N  N445  1  0.87720000  0.63730000  0.95800000  1
  N  N446  1  0.91130000  0.33140000  0.46310000  1
  N  N447  1  0.91130000  0.83140000  0.03690000  1
  O  O448  1  0.30980000  0.07060000  0.46420000  1
  O  O449  1  0.30980000  0.57060000  0.03580000  1
  O  O450  1  0.32710000  0.01070000  0.57480000  1
  O  O451  1  0.32710000  0.51070000  0.92520000  1
  O  O452  1  0.33070000  0.20880000  0.45490000  1
  O  O453  1  0.33070000  0.70880000  0.04510000  1
  O  O454  1  0.34540000  0.13190000  0.61390000  1
  O  O455  1  0.34540000  0.63190000  0.88610000  1
  O  O456  1  0.37420000  0.38360000  0.38700000  1
  O  O457  1  0.37420000  0.88360000  0.11300000  1
  O  O458  1  0.37480000  0.00140000  0.07490000  1
  O  O459  1  0.37480000  0.50140000  0.42510000  1
  O  O460  1  0.38740000  0.29980000  0.54690000  1
  O  O461  1  0.38740000  0.79980000  0.95310000  1
  O  O462  1  0.40720000  0.43870000  0.53640000  1
  O  O463  1  0.40720000  0.93870000  0.96360000  1
  O  O464  1  0.59280000  0.06130000  0.03640000  1
  O  O465  1  0.59280000  0.56130000  0.46360000  1
  O  O466  1  0.61260000  0.20020000  0.04690000  1
  O  O467  1  0.61260000  0.70020000  0.45310000  1
  O  O468  1  0.62520000  0.49860000  0.57490000  1
  O  O469  1  0.62520000  0.99860000  0.92510000  1
  O  O470  1  0.62580000  0.11640000  0.88700000  1
  O  O471  1  0.62580000  0.61640000  0.61300000  1
  O  O472  1  0.65460000  0.36810000  0.11390000  1
  O  O473  1  0.65460000  0.86810000  0.38610000  1
  O  O474  1  0.66930000  0.29120000  0.95490000  1
  O  O475  1  0.66930000  0.79120000  0.54510000  1
  O  O476  1  0.67290000  0.48930000  0.07480000  1
  O  O477  1  0.67290000  0.98930000  0.42520000  1
  O  O478  1  0.69020000  0.42940000  0.96420000  1
  O  O479  1  0.69020000  0.92940000  0.53580000  1
