# generated using pymatgen
data_Zn3H10C23N5O12
_symmetry_space_group_name_H-M   'P 1'
_cell_length_a   14.40220000
_cell_length_b   17.43950000
_cell_length_c   25.92000000
_cell_angle_alpha   90.00000000
_cell_angle_beta   90.00000000
_cell_angle_gamma   107.38400000
_symmetry_Int_Tables_number   1
_chemical_formula_structural   Zn3H10C23N5O12
_chemical_formula_sum   'Zn12 H40 C92 N20 O48'
_cell_volume   6212.88934464
_cell_formula_units_Z   4
loop_
 _symmetry_equiv_pos_site_id
 _symmetry_equiv_pos_as_xyz
  1  'x, y, z'
loop_
 _atom_site_type_symbol
 _atom_site_label
 _atom_site_symmetry_multiplicity
 _atom_site_fract_x
 _atom_site_fract_y
 _atom_site_fract_z
 _atom_site_occupancy
  Zn  Zn0  1  0.95936000  0.22653000  0.68031000  1
  Zn  Zn1  1  0.89769000  0.31073000  0.06598000  1
  Zn  Zn2  1  0.83466000  0.12570000  0.00072000  1
  Zn  Zn3  1  0.66534000  0.37430000  0.50072000  1
  Zn  Zn4  1  0.60231000  0.18927000  0.56598000  1
  Zn  Zn5  1  0.54064000  0.27347000  0.18031000  1
  Zn  Zn6  1  0.45936000  0.72653000  0.81969000  1
  Zn  Zn7  1  0.39769000  0.81073000  0.43402000  1
  Zn  Zn8  1  0.33466000  0.62570000  0.49928000  1
  Zn  Zn9  1  0.16534000  0.87430000  0.99928000  1
  Zn  Zn10  1  0.10231000  0.68927000  0.93402000  1
  Zn  Zn11  1  0.04064000  0.77347000  0.31969000  1
  H  H12  1  0.97810000  0.43000000  0.94730000  1
  H  H13  1  0.95640000  0.60060000  0.34860000  1
  H  H14  1  0.95360000  0.53370000  0.20260000  1
  H  H15  1  0.94660000  0.92240000  0.95620000  1
  H  H16  1  0.92330000  0.24110000  0.85030000  1
  H  H17  1  0.91830000  0.52710000  0.38080000  1
  H  H18  1  0.86390000  0.47490000  0.50730000  1
  H  H19  1  0.82580000  0.71820000  0.87830000  1
  H  H20  1  0.81950000  0.62270000  0.39740000  1
  H  H21  1  0.75240000  0.17430000  0.64310000  1
  H  H22  1  0.74760000  0.32570000  0.14310000  1
  H  H23  1  0.68050000  0.87730000  0.89740000  1
  H  H24  1  0.67420000  0.78180000  0.37830000  1
  H  H25  1  0.63610000  0.02510000  0.00730000  1
  H  H26  1  0.58170000  0.97290000  0.88080000  1
  H  H27  1  0.57670000  0.25890000  0.35030000  1
  H  H28  1  0.55340000  0.57760000  0.45620000  1
  H  H29  1  0.54640000  0.96630000  0.70260000  1
  H  H30  1  0.54360000  0.89940000  0.84860000  1
  H  H31  1  0.52190000  0.07000000  0.44730000  1
  H  H32  1  0.47810000  0.93000000  0.55270000  1
  H  H33  1  0.45640000  0.10060000  0.15140000  1
  H  H34  1  0.45360000  0.03370000  0.29740000  1
  H  H35  1  0.44660000  0.42240000  0.54380000  1
  H  H36  1  0.42330000  0.74110000  0.64970000  1
  H  H37  1  0.41830000  0.02710000  0.11920000  1
  H  H38  1  0.36390000  0.97490000  0.99270000  1
  H  H39  1  0.32580000  0.21820000  0.62170000  1
  H  H40  1  0.31950000  0.12270000  0.10260000  1
  H  H41  1  0.25240000  0.67430000  0.85690000  1
  H  H42  1  0.24760000  0.82570000  0.35690000  1
  H  H43  1  0.18050000  0.37730000  0.60260000  1
  H  H44  1  0.17420000  0.28180000  0.12170000  1
  H  H45  1  0.13610000  0.52510000  0.49270000  1
  H  H46  1  0.08170000  0.47290000  0.61920000  1
  H  H47  1  0.07670000  0.75890000  0.14970000  1
  H  H48  1  0.05340000  0.07760000  0.04380000  1
  H  H49  1  0.04640000  0.46630000  0.79740000  1
  H  H50  1  0.04360000  0.39940000  0.65140000  1
  H  H51  1  0.02190000  0.57000000  0.05270000  1
  C  C52  1  0.98970000  0.79120000  0.92760000  1
  C  C53  1  0.98970000  0.31890000  0.76230000  1
  C  C54  1  0.98610000  0.34890000  0.81570000  1
  C  C55  1  0.98240000  0.53770000  0.12560000  1
  C  C56  1  0.97920000  0.41000000  0.91410000  1
  C  C57  1  0.97910000  0.56850000  0.17540000  1
  C  C58  1  0.95730000  0.40810000  0.59820000  1
  C  C59  1  0.94640000  0.29610000  0.85600000  1
  C  C60  1  0.94420000  0.44990000  0.11760000  1
  C  C61  1  0.94220000  0.32810000  0.90550000  1
  C  C62  1  0.90050000  0.27300000  0.94980000  1
  C  C63  1  0.90050000  0.81640000  0.91830000  1
  C  C64  1  0.89450000  0.88910000  0.93790000  1
  C  C65  1  0.87990000  0.33590000  0.60570000  1
  C  C66  1  0.86690000  0.43890000  0.53320000  1
  C  C67  1  0.84760000  0.76540000  0.35410000  1
  C  C68  1  0.82180000  0.76660000  0.89160000  1
  C  C69  1  0.81150000  0.91190000  0.93030000  1
  C  C70  1  0.80290000  0.99060000  0.95070000  1
  C  C71  1  0.79620000  0.32460000  0.57590000  1
  C  C72  1  0.77980000  0.22370000  0.62720000  1
  C  C73  1  0.76420000  0.63850000  0.40330000  1
  C  C74  1  0.76130000  0.71220000  0.38460000  1
  C  C75  1  0.73870000  0.78780000  0.88460000  1
  C  C76  1  0.73580000  0.86150000  0.90330000  1
  C  C77  1  0.72020000  0.27630000  0.12720000  1
  C  C78  1  0.70380000  0.17540000  0.07590000  1
  C  C79  1  0.69710000  0.50940000  0.45070000  1
  C  C80  1  0.68850000  0.58810000  0.43030000  1
  C  C81  1  0.67820000  0.73340000  0.39160000  1
  C  C82  1  0.65240000  0.73460000  0.85410000  1
  C  C83  1  0.63310000  0.06110000  0.03320000  1
  C  C84  1  0.62010000  0.16410000  0.10570000  1
  C  C85  1  0.60550000  0.61090000  0.43790000  1
  C  C86  1  0.59950000  0.22700000  0.44980000  1
  C  C87  1  0.59950000  0.68360000  0.41830000  1
  C  C88  1  0.55780000  0.17190000  0.40550000  1
  C  C89  1  0.55580000  0.05010000  0.61760000  1
  C  C90  1  0.55360000  0.20390000  0.35600000  1
  C  C91  1  0.54270000  0.09190000  0.09820000  1
  C  C92  1  0.52090000  0.93150000  0.67540000  1
  C  C93  1  0.52080000  0.09000000  0.41410000  1
  C  C94  1  0.51760000  0.96230000  0.62560000  1
  C  C95  1  0.51390000  0.15110000  0.31570000  1
  C  C96  1  0.51030000  0.70880000  0.42760000  1
  C  C97  1  0.51030000  0.18110000  0.26230000  1
  C  C98  1  0.48970000  0.81890000  0.73770000  1
  C  C99  1  0.48970000  0.29120000  0.57240000  1
  C  C100  1  0.48610000  0.84890000  0.68430000  1
  C  C101  1  0.48240000  0.03770000  0.37440000  1
  C  C102  1  0.47920000  0.91000000  0.58590000  1
  C  C103  1  0.47910000  0.06850000  0.32460000  1
  C  C104  1  0.45730000  0.90810000  0.90180000  1
  C  C105  1  0.44640000  0.79610000  0.64400000  1
  C  C106  1  0.44420000  0.94990000  0.38240000  1
  C  C107  1  0.44220000  0.82810000  0.59450000  1
  C  C108  1  0.40050000  0.31640000  0.58170000  1
  C  C109  1  0.40050000  0.77300000  0.55020000  1
  C  C110  1  0.39450000  0.38910000  0.56210000  1
  C  C111  1  0.37990000  0.83590000  0.89430000  1
  C  C112  1  0.36690000  0.93890000  0.96680000  1
  C  C113  1  0.34760000  0.26540000  0.14590000  1
  C  C114  1  0.32180000  0.26660000  0.60840000  1
  C  C115  1  0.31150000  0.41190000  0.56970000  1
  C  C116  1  0.30290000  0.49060000  0.54930000  1
  C  C117  1  0.29620000  0.82460000  0.92410000  1
  C  C118  1  0.27980000  0.72370000  0.87280000  1
  C  C119  1  0.26420000  0.13850000  0.09670000  1
  C  C120  1  0.26130000  0.21220000  0.11540000  1
  C  C121  1  0.23870000  0.28780000  0.61540000  1
  C  C122  1  0.23580000  0.36150000  0.59670000  1
  C  C123  1  0.22020000  0.77630000  0.37280000  1
  C  C124  1  0.20380000  0.67540000  0.42410000  1
  C  C125  1  0.19710000  0.00940000  0.04930000  1
  C  C126  1  0.18850000  0.08810000  0.06970000  1
  C  C127  1  0.17820000  0.23340000  0.10840000  1
  C  C128  1  0.15240000  0.23460000  0.64590000  1
  C  C129  1  0.13310000  0.56110000  0.46680000  1
  C  C130  1  0.12010000  0.66410000  0.39430000  1
  C  C131  1  0.10550000  0.11090000  0.06210000  1
  C  C132  1  0.09950000  0.18360000  0.08170000  1
  C  C133  1  0.09950000  0.72700000  0.05020000  1
  C  C134  1  0.05780000  0.67190000  0.09450000  1
  C  C135  1  0.05580000  0.55010000  0.88240000  1
  C  C136  1  0.05360000  0.70390000  0.14400000  1
  C  C137  1  0.04270000  0.59190000  0.40180000  1
  C  C138  1  0.02090000  0.43150000  0.82460000  1
  C  C139  1  0.02080000  0.59000000  0.08590000  1
  C  C140  1  0.01760000  0.46230000  0.87440000  1
  C  C141  1  0.01390000  0.65110000  0.18430000  1
  C  C142  1  0.01030000  0.68110000  0.23770000  1
  C  C143  1  0.01030000  0.20880000  0.07240000  1
  N  N144  1  0.96340000  0.57080000  0.37390000  1
  N  N145  1  0.94910000  0.45640000  0.55910000  1
  N  N146  1  0.86870000  0.27090000  0.63860000  1
  N  N147  1  0.78600000  0.37560000  0.53930000  1
  N  N148  1  0.76790000  0.24690000  0.09050000  1
  N  N149  1  0.73210000  0.25310000  0.59050000  1
  N  N150  1  0.71400000  0.12440000  0.03930000  1
  N  N151  1  0.63130000  0.22910000  0.13860000  1
  N  N152  1  0.55090000  0.04360000  0.05910000  1
  N  N153  1  0.53660000  0.92920000  0.87390000  1
  N  N154  1  0.46340000  0.07080000  0.12610000  1
  N  N155  1  0.44910000  0.95640000  0.94090000  1
  N  N156  1  0.36870000  0.77090000  0.86140000  1
  N  N157  1  0.28600000  0.87560000  0.96070000  1
  N  N158  1  0.26790000  0.74690000  0.40950000  1
  N  N159  1  0.23210000  0.75310000  0.90950000  1
  N  N160  1  0.21400000  0.62440000  0.46070000  1
  N  N161  1  0.13130000  0.72910000  0.36140000  1
  N  N162  1  0.05090000  0.54360000  0.44090000  1
  N  N163  1  0.03660000  0.42920000  0.62610000  1
  O  O164  1  0.98730000  0.72070000  0.91710000  1
  O  O165  1  0.97250000  0.63340000  0.27290000  1
  O  O166  1  0.95360000  0.24300000  0.75481000  1
  O  O167  1  0.93790000  0.42700000  0.07070000  1
  O  O168  1  0.93630000  0.15690000  0.05500000  1
  O  O169  1  0.92320000  0.74410000  0.35840000  1
  O  O170  1  0.91940000  0.40270000  0.15410000  1
  O  O171  1  0.88420000  0.30490000  0.99000000  1
  O  O172  1  0.88230000  0.19890000  0.94340000  1
  O  O173  1  0.86280000  0.02560000  0.98420000  1
  O  O174  1  0.83950000  0.81950000  0.32890000  1
  O  O175  1  0.76240000  0.48380000  0.43510000  1
  O  O176  1  0.73760000  0.01620000  0.93510000  1
  O  O177  1  0.66050000  0.68050000  0.82890000  1
  O  O178  1  0.63720000  0.47440000  0.48420000  1
  O  O179  1  0.61770000  0.30110000  0.44340000  1
  O  O180  1  0.61580000  0.19510000  0.49000000  1
  O  O181  1  0.58060000  0.09730000  0.65410000  1
  O  O182  1  0.57680000  0.75590000  0.85840000  1
  O  O183  1  0.56370000  0.34310000  0.55500000  1
  O  O184  1  0.56210000  0.07300000  0.57070000  1
  O  O185  1  0.54640000  0.25700000  0.25481000  1
  O  O186  1  0.52750000  0.86660000  0.77290000  1
  O  O187  1  0.51270000  0.77930000  0.41710000  1
  O  O188  1  0.48730000  0.22070000  0.58290000  1
  O  O189  1  0.47250000  0.13340000  0.22710000  1
  O  O190  1  0.45360000  0.74300000  0.74519000  1
  O  O191  1  0.43790000  0.92700000  0.42930000  1
  O  O192  1  0.43630000  0.65690000  0.44500000  1
  O  O193  1  0.42320000  0.24410000  0.14160000  1
  O  O194  1  0.41940000  0.90270000  0.34590000  1
  O  O195  1  0.38420000  0.80490000  0.51000000  1
  O  O196  1  0.38230000  0.69890000  0.55660000  1
  O  O197  1  0.36280000  0.52560000  0.51580000  1
  O  O198  1  0.33950000  0.31950000  0.17110000  1
  O  O199  1  0.26240000  0.98380000  0.06490000  1
  O  O200  1  0.23760000  0.51620000  0.56490000  1
  O  O201  1  0.16050000  0.18050000  0.67110000  1
  O  O202  1  0.13720000  0.97440000  0.01580000  1
  O  O203  1  0.11770000  0.80110000  0.05660000  1
  O  O204  1  0.11580000  0.69510000  0.01000000  1
  O  O205  1  0.08060000  0.59730000  0.84590000  1
  O  O206  1  0.07680000  0.25590000  0.64160000  1
  O  O207  1  0.06370000  0.84310000  0.94500000  1
  O  O208  1  0.06210000  0.57300000  0.92930000  1
  O  O209  1  0.04640000  0.75700000  0.24519000  1
  O  O210  1  0.02750000  0.36660000  0.72710000  1
  O  O211  1  0.01270000  0.27930000  0.08290000  1
