# generated using pymatgen
data_CuH12C24N5O2
_symmetry_space_group_name_H-M   'P 1'
_cell_length_a   12.23420000
_cell_length_b   13.95830000
_cell_length_c   19.60640000
_cell_angle_alpha   83.81790000
_cell_angle_beta   75.77510000
_cell_angle_gamma   64.00820000
_symmetry_Int_Tables_number   1
_chemical_formula_structural   CuH12C24N5O2
_chemical_formula_sum   'Cu4 H48 C96 N20 O8'
_cell_volume   2917.23885347
_cell_formula_units_Z   4
loop_
 _symmetry_equiv_pos_site_id
 _symmetry_equiv_pos_as_xyz
  1  'x, y, z'
loop_
 _atom_site_type_symbol
 _atom_site_label
 _atom_site_symmetry_multiplicity
 _atom_site_fract_x
 _atom_site_fract_y
 _atom_site_fract_z
 _atom_site_occupancy
  Cu  Cu0  1  0.14075000  0.55604000  0.46223000  1
  Cu  Cu1  1  0.30321000  0.55604000  0.03777000  1
  Cu  Cu2  1  0.69679000  0.44396000  0.96223000  1
  Cu  Cu3  1  0.85925000  0.44396000  0.53777000  1
  H  H4  1  0.02230000  0.61660000  0.23100000  1
  H  H5  1  0.04200000  0.23580000  0.40830000  1
  H  H6  1  0.09100000  0.24660000  0.54560000  1
  H  H7  1  0.13490000  0.52920000  0.61770000  1
  H  H8  1  0.13860000  0.06020000  0.36640000  1
  H  H9  1  0.14340000  0.53040000  0.31370000  1
  H  H10  1  0.18040000  0.28920000  0.98200000  1
  H  H11  1  0.19340000  0.40840000  0.04890000  1
  H  H12  1  0.19880000  0.93980000  0.86640000  1
  H  H13  1  0.21260000  0.15700000  0.62510000  1
  H  H14  1  0.25700000  0.41200000  0.69160000  1
  H  H15  1  0.27780000  0.76420000  0.90830000  1
  H  H16  1  0.32620000  0.53040000  0.18630000  1
  H  H17  1  0.33100000  0.41200000  0.80840000  1
  H  H18  1  0.33590000  0.52920000  0.88230000  1
  H  H19  1  0.33760000  0.75340000  0.04560000  1
  H  H20  1  0.36110000  0.61660000  0.26900000  1
  H  H21  1  0.36960000  0.84300000  0.12510000  1
  H  H22  1  0.37800000  0.24340000  0.37190000  1
  H  H23  1  0.37860000  0.24340000  0.12810000  1
  H  H24  1  0.39820000  0.40840000  0.45110000  1
  H  H25  1  0.45750000  0.06840000  0.16840000  1
  H  H26  1  0.46960000  0.71080000  0.48200000  1
  H  H27  1  0.47410000  0.06840000  0.33160000  1
  H  H28  1  0.52590000  0.93160000  0.66840000  1
  H  H29  1  0.53040000  0.28920000  0.51800000  1
  H  H30  1  0.54250000  0.93160000  0.83160000  1
  H  H31  1  0.60180000  0.59160000  0.54890000  1
  H  H32  1  0.62140000  0.75660000  0.87190000  1
  H  H33  1  0.62200000  0.75660000  0.62810000  1
  H  H34  1  0.63040000  0.15700000  0.87490000  1
  H  H35  1  0.63890000  0.38340000  0.73100000  1
  H  H36  1  0.66240000  0.24660000  0.95440000  1
  H  H37  1  0.66410000  0.47080000  0.11770000  1
  H  H38  1  0.66900000  0.58800000  0.19160000  1
  H  H39  1  0.67380000  0.46960000  0.81370000  1
  H  H40  1  0.72220000  0.23580000  0.09170000  1
  H  H41  1  0.74300000  0.58800000  0.30840000  1
  H  H42  1  0.78740000  0.84300000  0.37490000  1
  H  H43  1  0.80120000  0.06020000  0.13360000  1
  H  H44  1  0.80660000  0.59160000  0.95110000  1
  H  H45  1  0.81960000  0.71080000  0.01800000  1
  H  H46  1  0.85660000  0.46960000  0.68630000  1
  H  H47  1  0.86140000  0.93980000  0.63360000  1
  H  H48  1  0.86510000  0.47080000  0.38230000  1
  H  H49  1  0.90900000  0.75340000  0.45440000  1
  H  H50  1  0.95800000  0.76420000  0.59170000  1
  H  H51  1  0.97770000  0.38340000  0.76900000  1
  C  C52  1  0.00290000  0.35500000  0.72290000  1
  C  C53  1  0.06733000  0.27534000  0.59150000  1
  C  C54  1  0.06960000  0.59420000  0.32640000  1
  C  C55  1  0.11128000  0.26324000  0.70430000  1
  C  C56  1  0.13000000  0.20200000  0.39240000  1
  C  C57  1  0.13447000  0.36966000  0.42180000  1
  C  C58  1  0.14098000  0.22224000  0.63840000  1
  C  C59  1  0.18750000  0.09680000  0.36820000  1
  C  C60  1  0.18920000  0.21480000  0.75850000  1
  C  C61  1  0.19913000  0.25694000  0.39340000  1
  C  C62  1  0.21530000  0.33660000  0.96010000  1
  C  C63  1  0.21590000  0.47780000  0.59720000  1
  C  C64  1  0.22340000  0.40780000  0.99940000  1
  C  C65  1  0.24270000  0.10600000  0.77340000  1
  C  C66  1  0.25310000  0.02520000  0.72800000  1
  C  C67  1  0.25890000  0.33540000  0.88730000  1
  C  C68  1  0.25986000  0.25228000  0.84540000  1
  C  C69  1  0.27830000  0.97480000  0.22800000  1
  C  C70  1  0.28430000  0.90320000  0.86820000  1
  C  C71  1  0.28820000  0.40860000  0.64210000  1
  C  C72  1  0.30320000  0.40860000  0.85790000  1
  C  C73  1  0.30630000  0.47780000  0.90280000  1
  C  C74  1  0.30910000  0.06840000  0.82610000  1
  C  C75  1  0.31663000  0.04634000  0.34700000  1
  C  C76  1  0.31970000  0.14380000  0.86100000  1
  C  C77  1  0.32930000  0.20620000  0.37100000  1
  C  C78  1  0.33200000  0.79800000  0.89240000  1
  C  C79  1  0.33620000  0.59420000  0.17360000  1
  C  C80  1  0.34267000  0.72466000  0.09150000  1
  C  C81  1  0.34870000  0.89400000  0.27340000  1
  C  C82  1  0.35790000  0.64500000  0.22290000  1
  C  C83  1  0.36297000  0.95366000  0.84700000  1
  C  C84  1  0.36322000  0.77776000  0.13840000  1
  C  C85  1  0.36880000  0.40780000  0.50060000  1
  C  C86  1  0.37452000  0.73676000  0.20430000  1
  C  C87  1  0.37750000  0.93160000  0.32610000  1
  C  C88  1  0.38600000  0.10220000  0.34760000  1
  C  C89  1  0.40400000  0.78520000  0.25850000  1
  C  C90  1  0.40570000  0.33540000  0.61270000  1
  C  C91  1  0.40950000  0.11020000  0.90490000  1
  C  C92  1  0.44810000  0.33660000  0.53990000  1
  C  C93  1  0.45607000  0.74306000  0.89340000  1
  C  C94  1  0.46350000  0.85620000  0.36100000  1
  C  C95  1  0.46450000  0.20620000  0.12900000  1
  C  C96  1  0.48030000  0.11020000  0.59510000  1
  C  C97  1  0.48786000  0.25228000  0.65460000  1
  C  C98  1  0.48820000  0.89780000  0.84760000  1
  C  C99  1  0.49587000  0.36966000  0.07820000  1
  C  C100  1  0.50413000  0.63034000  0.92180000  1
  C  C101  1  0.51180000  0.10220000  0.15240000  1
  C  C102  1  0.51214000  0.74772000  0.34540000  1
  C  C103  1  0.51970000  0.88980000  0.40490000  1
  C  C104  1  0.53550000  0.79380000  0.87100000  1
  C  C105  1  0.53650000  0.14380000  0.63900000  1
  C  C106  1  0.54393000  0.25694000  0.10660000  1
  C  C107  1  0.55190000  0.66340000  0.46010000  1
  C  C108  1  0.59050000  0.88980000  0.09510000  1
  C  C109  1  0.59430000  0.66460000  0.38730000  1
  C  C110  1  0.59600000  0.21480000  0.74150000  1
  C  C111  1  0.61400000  0.89780000  0.65240000  1
  C  C112  1  0.62250000  0.06840000  0.67390000  1
  C  C113  1  0.62548000  0.26324000  0.79570000  1
  C  C114  1  0.63120000  0.59220000  0.49940000  1
  C  C115  1  0.63678000  0.22224000  0.86160000  1
  C  C116  1  0.63703000  0.04634000  0.15300000  1
  C  C117  1  0.64210000  0.35500000  0.77710000  1
  C  C118  1  0.65130000  0.10600000  0.72660000  1
  C  C119  1  0.65733000  0.27534000  0.90850000  1
  C  C120  1  0.66380000  0.40580000  0.82640000  1
  C  C121  1  0.66800000  0.20200000  0.10760000  1
  C  C122  1  0.67070000  0.79380000  0.62900000  1
  C  C123  1  0.68030000  0.85620000  0.13900000  1
  C  C124  1  0.68337000  0.95366000  0.65300000  1
  C  C125  1  0.69090000  0.93160000  0.17390000  1
  C  C126  1  0.69370000  0.52220000  0.09720000  1
  C  C127  1  0.69680000  0.59140000  0.14210000  1
  C  C128  1  0.71180000  0.59140000  0.35790000  1
  C  C129  1  0.71570000  0.09680000  0.13180000  1
  C  C130  1  0.72170000  0.02520000  0.77200000  1
  C  C131  1  0.74014000  0.74772000  0.15460000  1
  C  C132  1  0.74110000  0.66460000  0.11270000  1
  C  C133  1  0.74690000  0.97480000  0.27200000  1
  C  C134  1  0.75730000  0.89400000  0.22660000  1
  C  C135  1  0.77660000  0.59220000  0.00060000  1
  C  C136  1  0.78410000  0.52220000  0.40280000  1
  C  C137  1  0.78470000  0.66340000  0.03990000  1
  C  C138  1  0.80087000  0.74306000  0.60660000  1
  C  C139  1  0.81080000  0.78520000  0.24150000  1
  C  C140  1  0.81250000  0.90320000  0.63180000  1
  C  C141  1  0.85902000  0.77776000  0.36160000  1
  C  C142  1  0.86553000  0.63034000  0.57820000  1
  C  C143  1  0.87000000  0.79800000  0.60760000  1
  C  C144  1  0.88872000  0.73676000  0.29570000  1
  C  C145  1  0.93040000  0.40580000  0.67360000  1
  C  C146  1  0.93267000  0.72466000  0.40850000  1
  C  C147  1  0.99710000  0.64500000  0.27710000  1
  N  N148  1  0.03631000  0.63438000  0.39227000  1
  N  N149  1  0.19959000  0.28622000  0.79298000  1
  N  N150  1  0.21990000  0.03660000  0.19330000  1
  N  N151  1  0.25236000  0.47648000  0.52850000  1
  N  N152  1  0.25650000  0.96340000  0.69330000  1
  N  N153  1  0.27116000  0.47648000  0.97150000  1
  N  N154  1  0.32931000  0.63438000  0.10773000  1
  N  N155  1  0.43770000  0.09180000  0.55570000  1
  N  N156  1  0.47050000  0.09180000  0.94430000  1
  N  N157  1  0.48581000  0.71378000  0.29298000  1
  N  N158  1  0.51419000  0.28622000  0.70702000  1
  N  N159  1  0.52950000  0.90820000  0.05570000  1
  N  N160  1  0.56230000  0.90820000  0.44430000  1
  N  N161  1  0.67069000  0.36562000  0.89227000  1
  N  N162  1  0.72884000  0.52352000  0.02850000  1
  N  N163  1  0.74350000  0.03660000  0.30670000  1
  N  N164  1  0.74764000  0.52352000  0.47150000  1
  N  N165  1  0.78010000  0.96340000  0.80670000  1
  N  N166  1  0.80041000  0.71378000  0.20702000  1
  N  N167  1  0.96369000  0.36562000  0.60773000  1
  O  O168  1  0.02249000  0.40702000  0.44915000  1
  O  O169  1  0.20333000  0.41794000  0.41576000  1
  O  O170  1  0.37873000  0.41794000  0.08424000  1
  O  O171  1  0.42951000  0.59298000  0.94915000  1
  O  O172  1  0.57049000  0.40702000  0.05085000  1
  O  O173  1  0.62127000  0.58206000  0.91576000  1
  O  O174  1  0.79667000  0.58206000  0.58424000  1
  O  O175  1  0.97751000  0.59298000  0.55085000  1
