# generated using pymatgen
data_FeH8Au2(C2N)8
_symmetry_space_group_name_H-M   'P 1'
_cell_length_a   9.77420000
_cell_length_b   15.86934987
_cell_length_c   15.86934987
_cell_angle_alpha   115.89825591
_cell_angle_beta   101.84739016
_cell_angle_gamma   101.84739016
_symmetry_Int_Tables_number   1
_chemical_formula_structural   FeH8Au2(C2N)8
_chemical_formula_sum   'Fe3 H24 Au6 C48 N24'
_cell_volume   2041.86698589
_cell_formula_units_Z   3
loop_
 _symmetry_equiv_pos_site_id
 _symmetry_equiv_pos_as_xyz
  1  'x, y, z'
loop_
 _atom_site_type_symbol
 _atom_site_label
 _atom_site_symmetry_multiplicity
 _atom_site_fract_x
 _atom_site_fract_y
 _atom_site_fract_z
 _atom_site_occupancy
  Au  Au0  1  0.00000000  0.70658000  0.29342000  1
  Au  Au1  1  1.00000000  0.29342000  0.70658000  1
  Au  Au2  1  0.70658000  0.70658000  0.41316000  1
  Au  Au3  1  0.70658000  0.41316000  0.70658000  1
  Au  Au4  1  0.29342000  0.58684000  0.29342000  1
  Au  Au5  1  0.29342000  0.29342000  0.58684000  1
  C  C6  1  0.79250000  0.60740000  0.42350000  1
  C  C7  1  0.79250000  0.42350000  0.60740000  1
  C  C8  1  0.36290000  1.00000000  0.08420000  1
  C  C9  1  0.36290000  0.08420000  1.00000000  1
  C  C10  1  0.36470000  0.91230000  0.18090000  1
  C  C11  1  0.36470000  0.18090000  0.91230000  1
  C  C12  1  0.72130000  0.08420000  0.08420000  1
  C  C13  1  0.39370000  0.00000000  0.17960000  1
  C  C14  1  0.39370000  0.17960000  1.00000000  1
  C  C15  1  0.39580000  0.91520000  0.27160000  1
  C  C16  1  0.39580000  0.27160000  0.91520000  1
  C  C17  1  0.18510000  0.81610000  0.39260000  1
  C  C18  1  0.18510000  0.39260000  0.81610000  1
  C  C19  1  0.63100000  0.81610000  0.42350000  1
  C  C20  1  0.63100000  0.42350000  0.81610000  1
  C  C21  1  0.45240000  0.08770000  0.26860000  1
  C  C22  1  0.45240000  0.26860000  0.08770000  1
  C  C23  1  0.78590000  0.17960000  0.17960000  1
  C  C24  1  0.12420000  0.72840000  0.64360000  1
  C  C25  1  0.12420000  0.64360000  0.72840000  1
  C  C26  1  0.48060000  0.08480000  0.35640000  1
  C  C27  1  0.48060000  0.35640000  0.08480000  1
  C  C28  1  0.81620000  0.26860000  0.18090000  1
  C  C29  1  0.81620000  0.18090000  0.26860000  1
  C  C30  1  0.18380000  0.81910000  0.73140000  1
  C  C31  1  0.18380000  0.73140000  0.81910000  1
  C  C32  1  0.51940000  0.91520000  0.64360000  1
  C  C33  1  0.51940000  0.64360000  0.91520000  1
  C  C34  1  0.87580000  0.35640000  0.27160000  1
  C  C35  1  0.87580000  0.27160000  0.35640000  1
  C  C36  1  0.21410000  0.82040000  0.82040000  1
  C  C37  1  0.54760000  0.91230000  0.73140000  1
  C  C38  1  0.54760000  0.73140000  0.91230000  1
  C  C39  1  0.36900000  0.18390000  0.57650000  1
  C  C40  1  0.36900000  0.57650000  0.18390000  1
  C  C41  1  0.81490000  0.18390000  0.60740000  1
  C  C42  1  0.81490000  0.60740000  0.18390000  1
  C  C43  1  0.60420000  0.08480000  0.72840000  1
  C  C44  1  0.60420000  0.72840000  0.08480000  1
  C  C45  1  0.60630000  0.00000000  0.82040000  1
  C  C46  1  0.60630000  0.82040000  1.00000000  1
  C  C47  1  0.27870000  0.91580000  0.91580000  1
  C  C48  1  0.63530000  0.08770000  0.81910000  1
  C  C49  1  0.63530000  0.81910000  0.08770000  1
  C  C50  1  0.63710000  1.00000000  0.91580000  1
  C  C51  1  0.63710000  0.91580000  1.00000000  1
  C  C52  1  0.20750000  0.57650000  0.39260000  1
  C  C53  1  0.20750000  0.39260000  0.57650000  1
  Fe  Fe54  1  0.00000000  0.50000000  0.50000000  1
  Fe  Fe55  1  0.50000000  0.00000000  0.50000000  1
  Fe  Fe56  1  0.50000000  0.50000000  1.00000000  1
  H  H57  1  0.67520000  0.87820000  0.14830000  1
  H  H58  1  0.67520000  0.14830000  0.87820000  1
  H  H59  1  0.37610000  0.85550000  0.27190000  1
  H  H60  1  0.37610000  0.27190000  0.85550000  1
  H  H61  1  0.10420000  0.72810000  0.58360000  1
  H  H62  1  0.10420000  0.58360000  0.72810000  1
  H  H63  1  0.79700000  0.12180000  0.27010000  1
  H  H64  1  0.79700000  0.27010000  0.12180000  1
  H  H65  1  0.47310000  0.27010000  0.14830000  1
  H  H66  1  0.47310000  0.14830000  0.27010000  1
  H  H67  1  0.47940000  0.85550000  0.58360000  1
  H  H68  1  0.47940000  0.58360000  0.85550000  1
  H  H69  1  0.52060000  0.14450000  0.41640000  1
  H  H70  1  0.52060000  0.41640000  0.14450000  1
  H  H71  1  0.52690000  0.85170000  0.72990000  1
  H  H72  1  0.52690000  0.72990000  0.85170000  1
  H  H73  1  0.20300000  0.87820000  0.72990000  1
  H  H74  1  0.20300000  0.72990000  0.87820000  1
  H  H75  1  0.89580000  0.41640000  0.27190000  1
  H  H76  1  0.89580000  0.27190000  0.41640000  1
  H  H77  1  0.62390000  0.14450000  0.72810000  1
  H  H78  1  0.62390000  0.72810000  0.14450000  1
  H  H79  1  0.32480000  0.12180000  0.85170000  1
  H  H80  1  0.32480000  0.85170000  0.12180000  1
  N  N81  1  0.15290000  0.55960000  0.44280000  1
  N  N82  1  0.15290000  0.44280000  0.55960000  1
  N  N83  1  0.69569000  0.00000000  0.08827000  1
  N  N84  1  0.69569000  0.08827000  0.00000000  1
  N  N85  1  0.39258000  0.08827000  0.08827000  1
  N  N86  1  0.09410000  0.64145000  0.64145000  1
  N  N87  1  0.59330000  0.88320000  0.44040000  1
  N  N88  1  0.59330000  0.44040000  0.88320000  1
  N  N89  1  0.28990000  0.88320000  0.44280000  1
  N  N90  1  0.28990000  0.44280000  0.88320000  1
  N  N91  1  0.45265000  1.00000000  0.35855000  1
  N  N92  1  0.45265000  0.35855000  1.00000000  1
  N  N93  1  0.54735000  0.00000000  0.64145000  1
  N  N94  1  0.54735000  0.64145000  1.00000000  1
  N  N95  1  0.71010000  0.11680000  0.55720000  1
  N  N96  1  0.71010000  0.55720000  0.11680000  1
  N  N97  1  0.40670000  0.11680000  0.55960000  1
  N  N98  1  0.40670000  0.55960000  0.11680000  1
  N  N99  1  0.90590000  0.35855000  0.35855000  1
  N  N100  1  0.60742000  0.91173000  0.91173000  1
  N  N101  1  0.30431000  0.00000000  0.91173000  1
  N  N102  1  0.30431000  0.91173000  1.00000000  1
  N  N103  1  0.84710000  0.55720000  0.44040000  1
  N  N104  1  0.84710000  0.44040000  0.55720000  1
