# generated using pymatgen
data_CdH21C33N9O4
_symmetry_space_group_name_H-M   'P 1'
_cell_length_a   11.15970000
_cell_length_b   17.43400000
_cell_length_c   22.07500000
_cell_angle_alpha   90.00000000
_cell_angle_beta   90.00000000
_cell_angle_gamma   99.42400000
_symmetry_Int_Tables_number   1
_chemical_formula_structural   CdH21C33N9O4
_chemical_formula_sum   'Cd4 H84 C132 N36 O16'
_cell_volume   4236.90742739
_cell_formula_units_Z   4
loop_
 _symmetry_equiv_pos_site_id
 _symmetry_equiv_pos_as_xyz
  1  'x, y, z'
loop_
 _atom_site_type_symbol
 _atom_site_label
 _atom_site_symmetry_multiplicity
 _atom_site_fract_x
 _atom_site_fract_y
 _atom_site_fract_z
 _atom_site_occupancy
  Cd  Cd0  1  0.63237000  0.02872000  0.94261000  1
  Cd  Cd1  1  0.63237000  0.52872000  0.55739000  1
  Cd  Cd2  1  0.36763000  0.47128000  0.44261000  1
  Cd  Cd3  1  0.36763000  0.97128000  0.05739000  1
  H  H4  1  0.97960000  0.69150000  0.35160000  1
  H  H5  1  0.97960000  0.19150000  0.14840000  1
  H  H6  1  0.97710000  0.39010000  0.47490000  1
  H  H7  1  0.97710000  0.89010000  0.02510000  1
  H  H8  1  0.97600000  0.30260000  0.39010000  1
  H  H9  1  0.97600000  0.80260000  0.10990000  1
  H  H10  1  0.94010000  0.68440000  0.81550000  1
  H  H11  1  0.94010000  0.18440000  0.68450000  1
  H  H12  1  0.93400000  0.12750000  0.39220000  1
  H  H13  1  0.93400000  0.62750000  0.10780000  1
  H  H14  1  0.89870000  0.55120000  0.89160000  1
  H  H15  1  0.89870000  0.05120000  0.60840000  1
  H  H16  1  0.88410000  0.66650000  0.91850000  1
  H  H17  1  0.88410000  0.16650000  0.58150000  1
  H  H18  1  0.85210000  0.48120000  0.48500000  1
  H  H19  1  0.85210000  0.98120000  0.01500000  1
  H  H20  1  0.84970000  0.60970000  0.41470000  1
  H  H21  1  0.84970000  0.10970000  0.08530000  1
  H  H22  1  0.84030000  0.23290000  0.32280000  1
  H  H23  1  0.84030000  0.73290000  0.17720000  1
  H  H24  1  0.80540000  0.11780000  0.75290000  1
  H  H25  1  0.80540000  0.61780000  0.74710000  1
  H  H26  1  0.78730000  0.93580000  0.48110000  1
  H  H27  1  0.78730000  0.43580000  0.01890000  1
  H  H28  1  0.77280000  0.75910000  0.90170000  1
  H  H29  1  0.77280000  0.25910000  0.59830000  1
  H  H30  1  0.76310000  0.17360000  0.40680000  1
  H  H31  1  0.76310000  0.67360000  0.09320000  1
  H  H32  1  0.69540000  0.29020000  0.40360000  1
  H  H33  1  0.69540000  0.79020000  0.09640000  1
  H  H34  1  0.69480000  0.73800000  0.25660000  1
  H  H35  1  0.69480000  0.23800000  0.24340000  1
  H  H36  1  0.66020000  0.69350000  0.49910000  1
  H  H37  1  0.66020000  0.19350000  0.00090000  1
  H  H38  1  0.65650000  0.85630000  0.89370000  1
  H  H39  1  0.65650000  0.35630000  0.60630000  1
  H  H40  1  0.60420000  0.39910000  0.39520000  1
  H  H41  1  0.60420000  0.89910000  0.10480000  1
  H  H42  1  0.57550000  0.80330000  0.48690000  1
  H  H43  1  0.57550000  0.30330000  0.01310000  1
  H  H44  1  0.56620000  0.65720000  0.31940000  1
  H  H45  1  0.56620000  0.15720000  0.18060000  1
  H  H46  1  0.43380000  0.84280000  0.81940000  1
  H  H47  1  0.43380000  0.34280000  0.68060000  1
  H  H48  1  0.42450000  0.69670000  0.98690000  1
  H  H49  1  0.42450000  0.19670000  0.51310000  1
  H  H50  1  0.39580000  0.10090000  0.89520000  1
  H  H51  1  0.39580000  0.60090000  0.60480000  1
  H  H52  1  0.34350000  0.64370000  0.39370000  1
  H  H53  1  0.34350000  0.14370000  0.10630000  1
  H  H54  1  0.33980000  0.80650000  0.99910000  1
  H  H55  1  0.33980000  0.30650000  0.50090000  1
  H  H56  1  0.30520000  0.76200000  0.75660000  1
  H  H57  1  0.30520000  0.26200000  0.74340000  1
  H  H58  1  0.30460000  0.20980000  0.90360000  1
  H  H59  1  0.30460000  0.70980000  0.59640000  1
  H  H60  1  0.23690000  0.32640000  0.90680000  1
  H  H61  1  0.23690000  0.82640000  0.59320000  1
  H  H62  1  0.22720000  0.74090000  0.40170000  1
  H  H63  1  0.22720000  0.24090000  0.09830000  1
  H  H64  1  0.21270000  0.56420000  0.98110000  1
  H  H65  1  0.21270000  0.06420000  0.51890000  1
  H  H66  1  0.19460000  0.38220000  0.25290000  1
  H  H67  1  0.19460000  0.88220000  0.24710000  1
  H  H68  1  0.15970000  0.26710000  0.82280000  1
  H  H69  1  0.15970000  0.76710000  0.67720000  1
  H  H70  1  0.15030000  0.89030000  0.91470000  1
  H  H71  1  0.15030000  0.39030000  0.58530000  1
  H  H72  1  0.14790000  0.01880000  0.98500000  1
  H  H73  1  0.14790000  0.51880000  0.51500000  1
  H  H74  1  0.11590000  0.83350000  0.41850000  1
  H  H75  1  0.11590000  0.33350000  0.08150000  1
  H  H76  1  0.10130000  0.94880000  0.39160000  1
  H  H77  1  0.10130000  0.44880000  0.10840000  1
  H  H78  1  0.06600000  0.37250000  0.89220000  1
  H  H79  1  0.06600000  0.87250000  0.60780000  1
  H  H80  1  0.05990000  0.81560000  0.31550000  1
  H  H81  1  0.05990000  0.31560000  0.18450000  1
  H  H82  1  0.02400000  0.19740000  0.89010000  1
  H  H83  1  0.02400000  0.69740000  0.60990000  1
  H  H84  1  0.02290000  0.10990000  0.97490000  1
  H  H85  1  0.02290000  0.60990000  0.52510000  1
  H  H86  1  0.02040000  0.80850000  0.85160000  1
  H  H87  1  0.02040000  0.30850000  0.64840000  1
  C  C88  1  0.99380000  0.30440000  0.34890000  1
  C  C89  1  0.99380000  0.80440000  0.15110000  1
  C  C90  1  0.96440000  0.75220000  0.96980000  1
  C  C91  1  0.96440000  0.25220000  0.53020000  1
  C  C92  1  0.96430000  0.52820000  0.90370000  1
  C  C93  1  0.96430000  0.02820000  0.59630000  1
  C  C94  1  0.96050000  0.84950000  0.45830000  1
  C  C95  1  0.96050000  0.34950000  0.04170000  1
  C  C96  1  0.95710000  0.68780000  0.77420000  1
  C  C97  1  0.95710000  0.18780000  0.72580000  1
  C  C98  1  0.94710000  0.92830000  0.43920000  1
  C  C99  1  0.94710000  0.42830000  0.06080000  1
  C  C100  1  0.93750000  0.07670000  0.40400000  1
  C  C101  1  0.93750000  0.57670000  0.09600000  1
  C  C102  1  0.93570000  0.76680000  0.25350000  1
  C  C103  1  0.93570000  0.26680000  0.24650000  1
  C  C104  1  0.91180000  0.88150000  0.99840000  1
  C  C105  1  0.91180000  0.38150000  0.50160000  1
  C  C106  1  0.91120000  0.26300000  0.30850000  1
  C  C107  1  0.91120000  0.76300000  0.19150000  1
  C  C108  1  0.90030000  0.15250000  0.82950000  1
  C  C109  1  0.90030000  0.65250000  0.67050000  1
  C  C110  1  0.89640000  0.68370000  0.34440000  1
  C  C111  1  0.89640000  0.18370000  0.15560000  1
  C  C112  1  0.88860000  0.81320000  0.96490000  1
  C  C113  1  0.88860000  0.31320000  0.53510000  1
  C  C114  1  0.87650000  0.14800000  0.76680000  1
  C  C115  1  0.87650000  0.64800000  0.73320000  1
  C  C116  1  0.85120000  0.72080000  0.29600000  1
  C  C117  1  0.85120000  0.22080000  0.20400000  1
  C  C118  1  0.84880000  0.96300000  0.45730000  1
  C  C119  1  0.84880000  0.46300000  0.04270000  1
  C  C120  1  0.84400000  0.03850000  0.43940000  1
  C  C121  1  0.84400000  0.53850000  0.06060000  1
  C  C122  1  0.83680000  0.93620000  0.99170000  1
  C  C123  1  0.83680000  0.43620000  0.50830000  1
  C  C124  1  0.81820000  0.63480000  0.38260000  1
  C  C125  1  0.81820000  0.13480000  0.11740000  1
  C  C126  1  0.81090000  0.10980000  0.87150000  1
  C  C127  1  0.81090000  0.60980000  0.62850000  1
  C  C128  1  0.79100000  0.80390000  0.92500000  1
  C  C129  1  0.79100000  0.30390000  0.57500000  1
  C  C130  1  0.74640000  0.08060000  0.45890000  1
  C  C131  1  0.74640000  0.58060000  0.04110000  1
  C  C132  1  0.72680000  0.71160000  0.28780000  1
  C  C133  1  0.72680000  0.21160000  0.21220000  1
  C  C134  1  0.72150000  0.86260000  0.92060000  1
  C  C135  1  0.72150000  0.36260000  0.57940000  1
  C  C136  1  0.69490000  0.62360000  0.37300000  1
  C  C137  1  0.69490000  0.12360000  0.12700000  1
  C  C138  1  0.64970000  0.66330000  0.32570000  1
  C  C139  1  0.64970000  0.16330000  0.17430000  1
  C  C140  1  0.62810000  0.16170000  0.46820000  1
  C  C141  1  0.62810000  0.66170000  0.03180000  1
  C  C142  1  0.62340000  0.29260000  0.42410000  1
  C  C143  1  0.62340000  0.79260000  0.07590000  1
  C  C144  1  0.61210000  0.56730000  0.41380000  1
  C  C145  1  0.61210000  0.06730000  0.08620000  1
  C  C146  1  0.58750000  0.19690000  0.98130000  1
  C  C147  1  0.58750000  0.69690000  0.51870000  1
  C  C148  1  0.57110000  0.23130000  0.46000000  1
  C  C149  1  0.57110000  0.73130000  0.04000000  1
  C  C150  1  0.56760000  0.35780000  0.41900000  1
  C  C151  1  0.56760000  0.85780000  0.08100000  1
  C  C152  1  0.53730000  0.26290000  0.98890000  1
  C  C153  1  0.53730000  0.76290000  0.51110000  1
  C  C154  1  0.46270000  0.23710000  0.48890000  1
  C  C155  1  0.46270000  0.73710000  0.01110000  1
  C  C156  1  0.43240000  0.14220000  0.91900000  1
  C  C157  1  0.43240000  0.64220000  0.58100000  1
  C  C158  1  0.42890000  0.26870000  0.96000000  1
  C  C159  1  0.42890000  0.76870000  0.54000000  1
  C  C160  1  0.41250000  0.30310000  0.48130000  1
  C  C161  1  0.41250000  0.80310000  0.01870000  1
  C  C162  1  0.38790000  0.93270000  0.91380000  1
  C  C163  1  0.38790000  0.43270000  0.58620000  1
  C  C164  1  0.37660000  0.20740000  0.92410000  1
  C  C165  1  0.37660000  0.70740000  0.57590000  1
  C  C166  1  0.37190000  0.33830000  0.96820000  1
  C  C167  1  0.37190000  0.83830000  0.53180000  1
  C  C168  1  0.35030000  0.83670000  0.82570000  1
  C  C169  1  0.35030000  0.33670000  0.67430000  1
  C  C170  1  0.30510000  0.87640000  0.87300000  1
  C  C171  1  0.30510000  0.37640000  0.62700000  1
  C  C172  1  0.27850000  0.63740000  0.42060000  1
  C  C173  1  0.27850000  0.13740000  0.07940000  1
  C  C174  1  0.27320000  0.78840000  0.78780000  1
  C  C175  1  0.27320000  0.28840000  0.71220000  1
  C  C176  1  0.25360000  0.41940000  0.95890000  1
  C  C177  1  0.25360000  0.91940000  0.54110000  1
  C  C178  1  0.20900000  0.69610000  0.42500000  1
  C  C179  1  0.20900000  0.19610000  0.07500000  1
  C  C180  1  0.18910000  0.39020000  0.37150000  1
  C  C181  1  0.18910000  0.89020000  0.12850000  1
  C  C182  1  0.18180000  0.86520000  0.88260000  1
  C  C183  1  0.18180000  0.36520000  0.61740000  1
  C  C184  1  0.16320000  0.56380000  0.49170000  1
  C  C185  1  0.16320000  0.06380000  0.00830000  1
  C  C186  1  0.15600000  0.46150000  0.93940000  1
  C  C187  1  0.15600000  0.96150000  0.56060000  1
  C  C188  1  0.15120000  0.53700000  0.95730000  1
  C  C189  1  0.15120000  0.03700000  0.54270000  1
  C  C190  1  0.14880000  0.77920000  0.79600000  1
  C  C191  1  0.14880000  0.27920000  0.70400000  1
  C  C192  1  0.12350000  0.35200000  0.26680000  1
  C  C193  1  0.12350000  0.85200000  0.23320000  1
  C  C194  1  0.11140000  0.68680000  0.46490000  1
  C  C195  1  0.11140000  0.18680000  0.03510000  1
  C  C196  1  0.10360000  0.81630000  0.84440000  1
  C  C197  1  0.10360000  0.31630000  0.65560000  1
  C  C198  1  0.09970000  0.34750000  0.32950000  1
  C  C199  1  0.09970000  0.84750000  0.17050000  1
  C  C200  1  0.08880000  0.23700000  0.80850000  1
  C  C201  1  0.08880000  0.73700000  0.69150000  1
  C  C202  1  0.08820000  0.61850000  0.49840000  1
  C  C203  1  0.08820000  0.11850000  0.00160000  1
  C  C204  1  0.06430000  0.73320000  0.75350000  1
  C  C205  1  0.06430000  0.23320000  0.74650000  1
  C  C206  1  0.06250000  0.42330000  0.90400000  1
  C  C207  1  0.06250000  0.92330000  0.59600000  1
  C  C208  1  0.05290000  0.57170000  0.93920000  1
  C  C209  1  0.05290000  0.07170000  0.56080000  1
  C  C210  1  0.04290000  0.81220000  0.27420000  1
  C  C211  1  0.04290000  0.31220000  0.22580000  1
  C  C212  1  0.03950000  0.65050000  0.95830000  1
  C  C213  1  0.03950000  0.15050000  0.54170000  1
  C  C214  1  0.03570000  0.97180000  0.40370000  1
  C  C215  1  0.03570000  0.47180000  0.09630000  1
  C  C216  1  0.03560000  0.74780000  0.46980000  1
  C  C217  1  0.03560000  0.24780000  0.03020000  1
  C  C218  1  0.00620000  0.19560000  0.84890000  1
  C  C219  1  0.00620000  0.69560000  0.65110000  1
  N  N220  1  0.96730000  0.45500000  0.88580000  1
  N  N221  1  0.96730000  0.95500000  0.61420000  1
  N  N222  1  0.94390000  0.68460000  0.94180000  1
  N  N223  1  0.94390000  0.18460000  0.55820000  1
  N  N224  1  0.93220000  0.24110000  0.99750000  1
  N  N225  1  0.93220000  0.74110000  0.50250000  1
  N  N226  1  0.88230000  0.80670000  0.49540000  1
  N  N227  1  0.88230000  0.30670000  0.00460000  1
  N  N228  1  0.74380000  0.92790000  0.95350000  1
  N  N229  1  0.74380000  0.42790000  0.54650000  1
  N  N230  1  0.72510000  0.14660000  0.43560000  1
  N  N231  1  0.72510000  0.64660000  0.06440000  1
  N  N232  1  0.66660000  0.55600000  0.99670000  1
  N  N233  1  0.66660000  0.05600000  0.50330000  1
  N  N234  1  0.58980000  0.60850000  0.99000000  1
  N  N235  1  0.58980000  0.10850000  0.51000000  1
  N  N236  1  0.53640000  0.13670000  0.94690000  1
  N  N237  1  0.53640000  0.63670000  0.55310000  1
  N  N238  1  0.46360000  0.36330000  0.44690000  1
  N  N239  1  0.46360000  0.86330000  0.05310000  1
  N  N240  1  0.41020000  0.89150000  0.49000000  1
  N  N241  1  0.41020000  0.39150000  0.01000000  1
  N  N242  1  0.33333333  0.94400000  0.49670000  1
  N  N243  1  0.33333333  0.44400000  0.00330000  1
  N  N244  1  0.27490000  0.35340000  0.93560000  1
  N  N245  1  0.27490000  0.85340000  0.56440000  1
  N  N246  1  0.25620000  0.57210000  0.45350000  1
  N  N247  1  0.25620000  0.07210000  0.04650000  1
  N  N248  1  0.11770000  0.69330000  0.99540000  1
  N  N249  1  0.11770000  0.19330000  0.50460000  1
  N  N250  1  0.06780000  0.25890000  0.49750000  1
  N  N251  1  0.06780000  0.75890000  0.00250000  1
  N  N252  1  0.05610000  0.81540000  0.44180000  1
  N  N253  1  0.05610000  0.31540000  0.05820000  1
  N  N254  1  0.03270000  0.04500000  0.38580000  1
  N  N255  1  0.03270000  0.54500000  0.11420000  1
  O  O256  1  0.82300000  0.12010000  0.92834000  1
  O  O257  1  0.82300000  0.62010000  0.57166000  1
  O  O258  1  0.72140000  0.06370000  0.84997000  1
  O  O259  1  0.72140000  0.56370000  0.65003000  1
  O  O260  1  0.65400000  0.53980000  0.45650000  1
  O  O261  1  0.65400000  0.03980000  0.04350000  1
  O  O262  1  0.50300000  0.55540000  0.39610000  1
  O  O263  1  0.50300000  0.05540000  0.10390000  1
  O  O264  1  0.49700000  0.94460000  0.89610000  1
  O  O265  1  0.49700000  0.44460000  0.60390000  1
  O  O266  1  0.34600000  0.96020000  0.95650000  1
  O  O267  1  0.34600000  0.46020000  0.54350000  1
  O  O268  1  0.27860000  0.43630000  0.34997000  1
  O  O269  1  0.27860000  0.93630000  0.15003000  1
  O  O270  1  0.17700000  0.37990000  0.42834000  1
  O  O271  1  0.17700000  0.87990000  0.07166000  1
