# generated using pymatgen
data_CoH18C32(NO)8
_symmetry_space_group_name_H-M   'P 1'
_cell_length_a   8.73300000
_cell_length_b   16.28300000
_cell_length_c   22.98000000
_cell_angle_alpha   90.00000000
_cell_angle_beta   90.00000000
_cell_angle_gamma   90.00000000
_symmetry_Int_Tables_number   1
_chemical_formula_structural   CoH18C32(NO)8
_chemical_formula_sum   'Co4 H72 C128 N32 O32'
_cell_volume   3267.74310822
_cell_formula_units_Z   4
loop_
 _symmetry_equiv_pos_site_id
 _symmetry_equiv_pos_as_xyz
  1  'x, y, z'
loop_
 _atom_site_type_symbol
 _atom_site_label
 _atom_site_symmetry_multiplicity
 _atom_site_fract_x
 _atom_site_fract_y
 _atom_site_fract_z
 _atom_site_occupancy
  Co  Co0  1  0.22887000  0.25000000  0.75000000  1
  Co  Co1  1  0.27113000  0.25000000  0.25000000  1
  Co  Co2  1  0.72887000  0.75000000  0.75000000  1
  Co  Co3  1  0.77113000  0.75000000  0.25000000  1
  H  H4  1  0.03100000  0.69070000  0.17120000  1
  H  H5  1  0.03100000  0.80930000  0.32880000  1
  H  H6  1  0.07350000  0.01970000  0.24020000  1
  H  H7  1  0.07350000  0.48030000  0.25980000  1
  H  H8  1  0.07530000  0.62370000  0.94410000  1
  H  H9  1  0.07530000  0.87630000  0.55590000  1
  H  H10  1  0.11020000  0.06950000  0.81050000  1
  H  H11  1  0.11020000  0.43050000  0.68950000  1
  H  H12  1  0.11990000  0.24240000  0.06180000  1
  H  H13  1  0.11990000  0.25760000  0.43820000  1
  H  H14  1  0.13650000  0.58960000  0.66050000  1
  H  H15  1  0.13650000  0.91040000  0.83950000  1
  H  H16  1  0.15500000  0.07200000  0.33680000  1
  H  H17  1  0.15500000  0.42800000  0.16320000  1
  H  H18  1  0.19130000  0.11210000  0.58520000  1
  H  H19  1  0.19130000  0.38790000  0.91480000  1
  H  H20  1  0.22060000  0.66380000  0.86390000  1
  H  H21  1  0.22060000  0.83620000  0.63610000  1
  H  H22  1  0.27940000  0.66380000  0.13610000  1
  H  H23  1  0.27940000  0.83620000  0.36390000  1
  H  H24  1  0.30870000  0.11210000  0.41480000  1
  H  H25  1  0.30870000  0.38790000  0.08520000  1
  H  H26  1  0.34500000  0.07200000  0.66320000  1
  H  H27  1  0.34500000  0.42800000  0.83680000  1
  H  H28  1  0.36350000  0.58960000  0.33950000  1
  H  H29  1  0.36350000  0.91040000  0.16050000  1
  H  H30  1  0.38010000  0.24240000  0.93820000  1
  H  H31  1  0.38010000  0.25760000  0.56180000  1
  H  H32  1  0.38980000  0.06950000  0.18950000  1
  H  H33  1  0.38980000  0.43050000  0.31050000  1
  H  H34  1  0.42470000  0.62370000  0.05590000  1
  H  H35  1  0.42470000  0.87630000  0.44410000  1
  H  H36  1  0.42650000  0.01970000  0.75980000  1
  H  H37  1  0.42650000  0.48030000  0.74020000  1
  H  H38  1  0.46900000  0.69070000  0.82880000  1
  H  H39  1  0.46900000  0.80930000  0.67120000  1
  H  H40  1  0.53100000  0.19070000  0.32880000  1
  H  H41  1  0.53100000  0.30930000  0.17120000  1
  H  H42  1  0.57350000  0.51970000  0.25980000  1
  H  H43  1  0.57350000  0.98030000  0.24020000  1
  H  H44  1  0.57530000  0.12370000  0.55590000  1
  H  H45  1  0.57530000  0.37630000  0.94410000  1
  H  H46  1  0.61020000  0.56950000  0.68950000  1
  H  H47  1  0.61020000  0.93050000  0.81050000  1
  H  H48  1  0.61990000  0.74240000  0.43820000  1
  H  H49  1  0.61990000  0.75760000  0.06180000  1
  H  H50  1  0.63650000  0.08960000  0.83950000  1
  H  H51  1  0.63650000  0.41040000  0.66050000  1
  H  H52  1  0.65500000  0.57200000  0.16320000  1
  H  H53  1  0.65500000  0.92800000  0.33680000  1
  H  H54  1  0.69130000  0.61210000  0.91480000  1
  H  H55  1  0.69130000  0.88790000  0.58520000  1
  H  H56  1  0.72060000  0.16380000  0.63610000  1
  H  H57  1  0.72060000  0.33620000  0.86390000  1
  H  H58  1  0.77940000  0.16380000  0.36390000  1
  H  H59  1  0.77940000  0.33620000  0.13610000  1
  H  H60  1  0.80870000  0.61210000  0.08520000  1
  H  H61  1  0.80870000  0.88790000  0.41480000  1
  H  H62  1  0.84500000  0.57200000  0.83680000  1
  H  H63  1  0.84500000  0.92800000  0.66320000  1
  H  H64  1  0.86350000  0.08960000  0.16050000  1
  H  H65  1  0.86350000  0.41040000  0.33950000  1
  H  H66  1  0.88010000  0.74240000  0.56180000  1
  H  H67  1  0.88010000  0.75760000  0.93820000  1
  H  H68  1  0.88980000  0.56950000  0.31050000  1
  H  H69  1  0.88980000  0.93050000  0.18950000  1
  H  H70  1  0.92470000  0.12370000  0.44410000  1
  H  H71  1  0.92470000  0.37630000  0.05590000  1
  H  H72  1  0.92650000  0.51970000  0.74020000  1
  H  H73  1  0.92650000  0.98030000  0.75980000  1
  H  H74  1  0.96900000  0.19070000  0.67120000  1
  H  H75  1  0.96900000  0.30930000  0.82880000  1
  C  C76  1  0.00480000  0.17170000  0.11990000  1
  C  C77  1  0.00480000  0.32830000  0.38010000  1
  C  C78  1  0.01870000  0.64920000  0.19980000  1
  C  C79  1  0.01870000  0.85080000  0.30020000  1
  C  C80  1  0.03370000  0.20750000  0.06670000  1
  C  C81  1  0.03370000  0.29250000  0.43330000  1
  C  C82  1  0.04340000  0.53390000  0.24820000  1
  C  C83  1  0.04340000  0.96610000  0.25180000  1
  C  C84  1  0.05820000  0.08260000  0.77540000  1
  C  C85  1  0.05820000  0.41740000  0.72460000  1
  C  C86  1  0.06300000  0.69230000  0.52060000  1
  C  C87  1  0.06300000  0.80770000  0.97940000  1
  C  C88  1  0.10270000  0.19240000  0.17140000  1
  C  C89  1  0.10270000  0.30760000  0.32860000  1
  C  C90  1  0.11750000  0.61690000  0.62470000  1
  C  C91  1  0.11750000  0.88310000  0.87530000  1
  C  C92  1  0.11900000  0.50200000  0.93670000  1
  C  C93  1  0.11900000  0.99800000  0.56330000  1
  C  C94  1  0.12910000  0.58370000  0.92200000  1
  C  C95  1  0.12910000  0.91630000  0.57800000  1
  C  C96  1  0.19250000  0.64320000  0.52460000  1
  C  C97  1  0.19250000  0.85680000  0.97540000  1
  C  C98  1  0.19900000  0.05560000  0.59510000  1
  C  C99  1  0.19900000  0.44440000  0.90490000  1
  C  C100  1  0.19900000  0.55010000  0.15570000  1
  C  C101  1  0.19900000  0.94990000  0.34430000  1
  C  C102  1  0.20980000  0.03200000  0.35860000  1
  C  C103  1  0.20980000  0.46800000  0.14140000  1
  C  C104  1  0.21140000  0.60270000  0.57690000  1
  C  C105  1  0.21140000  0.89730000  0.92310000  1
  C  C106  1  0.21740000  0.60770000  0.87500000  1
  C  C107  1  0.21740000  0.89230000  0.62500000  1
  C  C108  1  0.28260000  0.60770000  0.12500000  1
  C  C109  1  0.28260000  0.89230000  0.37500000  1
  C  C110  1  0.28860000  0.60270000  0.42310000  1
  C  C111  1  0.28860000  0.89730000  0.07690000  1
  C  C112  1  0.29020000  0.03200000  0.64140000  1
  C  C113  1  0.29020000  0.46800000  0.85860000  1
  C  C114  1  0.30100000  0.05560000  0.40490000  1
  C  C115  1  0.30100000  0.44440000  0.09510000  1
  C  C116  1  0.30100000  0.55010000  0.84430000  1
  C  C117  1  0.30100000  0.94990000  0.65570000  1
  C  C118  1  0.30750000  0.64320000  0.47540000  1
  C  C119  1  0.30750000  0.85680000  0.02460000  1
  C  C120  1  0.37090000  0.58370000  0.07800000  1
  C  C121  1  0.37090000  0.91630000  0.42200000  1
  C  C122  1  0.38100000  0.50200000  0.06330000  1
  C  C123  1  0.38100000  0.99800000  0.43670000  1
  C  C124  1  0.38250000  0.61690000  0.37530000  1
  C  C125  1  0.38250000  0.88310000  0.12470000  1
  C  C126  1  0.39730000  0.19240000  0.82860000  1
  C  C127  1  0.39730000  0.30760000  0.67140000  1
  C  C128  1  0.43700000  0.69230000  0.47940000  1
  C  C129  1  0.43700000  0.80770000  0.02060000  1
  C  C130  1  0.44180000  0.08260000  0.22460000  1
  C  C131  1  0.44180000  0.41740000  0.27540000  1
  C  C132  1  0.45660000  0.53390000  0.75180000  1
  C  C133  1  0.45660000  0.96610000  0.74820000  1
  C  C134  1  0.46630000  0.20750000  0.93330000  1
  C  C135  1  0.46630000  0.29250000  0.56670000  1
  C  C136  1  0.48130000  0.64920000  0.80020000  1
  C  C137  1  0.48130000  0.85080000  0.69980000  1
  C  C138  1  0.49520000  0.17170000  0.88010000  1
  C  C139  1  0.49520000  0.32830000  0.61990000  1
  C  C140  1  0.50480000  0.67170000  0.38010000  1
  C  C141  1  0.50480000  0.82830000  0.11990000  1
  C  C142  1  0.51870000  0.14920000  0.30020000  1
  C  C143  1  0.51870000  0.35080000  0.19980000  1
  C  C144  1  0.53370000  0.70750000  0.43330000  1
  C  C145  1  0.53370000  0.79250000  0.06670000  1
  C  C146  1  0.54340000  0.03390000  0.25180000  1
  C  C147  1  0.54340000  0.46610000  0.24820000  1
  C  C148  1  0.55820000  0.58260000  0.72460000  1
  C  C149  1  0.55820000  0.91740000  0.77540000  1
  C  C150  1  0.56300000  0.19230000  0.97940000  1
  C  C151  1  0.56300000  0.30770000  0.52060000  1
  C  C152  1  0.60270000  0.69240000  0.32860000  1
  C  C153  1  0.60270000  0.80760000  0.17140000  1
  C  C154  1  0.61750000  0.11690000  0.87530000  1
  C  C155  1  0.61750000  0.38310000  0.62470000  1
  C  C156  1  0.61900000  0.00200000  0.56330000  1
  C  C157  1  0.61900000  0.49800000  0.93670000  1
  C  C158  1  0.62910000  0.08370000  0.57800000  1
  C  C159  1  0.62910000  0.41630000  0.92200000  1
  C  C160  1  0.69250000  0.14320000  0.97540000  1
  C  C161  1  0.69250000  0.35680000  0.52460000  1
  C  C162  1  0.69900000  0.05010000  0.34430000  1
  C  C163  1  0.69900000  0.44990000  0.15570000  1
  C  C164  1  0.69900000  0.55560000  0.90490000  1
  C  C165  1  0.69900000  0.94440000  0.59510000  1
  C  C166  1  0.70980000  0.53200000  0.14140000  1
  C  C167  1  0.70980000  0.96800000  0.35860000  1
  C  C168  1  0.71140000  0.10270000  0.92310000  1
  C  C169  1  0.71140000  0.39730000  0.57690000  1
  C  C170  1  0.71740000  0.10770000  0.62500000  1
  C  C171  1  0.71740000  0.39230000  0.87500000  1
  C  C172  1  0.78260000  0.10770000  0.37500000  1
  C  C173  1  0.78260000  0.39230000  0.12500000  1
  C  C174  1  0.78860000  0.10270000  0.07690000  1
  C  C175  1  0.78860000  0.39730000  0.42310000  1
  C  C176  1  0.79020000  0.53200000  0.85860000  1
  C  C177  1  0.79020000  0.96800000  0.64140000  1
  C  C178  1  0.80100000  0.05010000  0.65570000  1
  C  C179  1  0.80100000  0.44990000  0.84430000  1
  C  C180  1  0.80100000  0.55560000  0.09510000  1
  C  C181  1  0.80100000  0.94440000  0.40490000  1
  C  C182  1  0.80750000  0.14320000  0.02460000  1
  C  C183  1  0.80750000  0.35680000  0.47540000  1
  C  C184  1  0.87090000  0.08370000  0.42200000  1
  C  C185  1  0.87090000  0.41630000  0.07800000  1
  C  C186  1  0.88100000  0.00200000  0.43670000  1
  C  C187  1  0.88100000  0.49800000  0.06330000  1
  C  C188  1  0.88250000  0.11690000  0.12470000  1
  C  C189  1  0.88250000  0.38310000  0.37530000  1
  C  C190  1  0.89730000  0.69240000  0.67140000  1
  C  C191  1  0.89730000  0.80760000  0.82860000  1
  C  C192  1  0.93700000  0.19230000  0.02060000  1
  C  C193  1  0.93700000  0.30770000  0.47940000  1
  C  C194  1  0.94180000  0.58260000  0.27540000  1
  C  C195  1  0.94180000  0.91740000  0.22460000  1
  C  C196  1  0.95660000  0.03390000  0.74820000  1
  C  C197  1  0.95660000  0.46610000  0.75180000  1
  C  C198  1  0.96630000  0.70750000  0.56670000  1
  C  C199  1  0.96630000  0.79250000  0.93330000  1
  C  C200  1  0.98130000  0.14920000  0.69980000  1
  C  C201  1  0.98130000  0.35080000  0.80020000  1
  C  C202  1  0.99520000  0.67170000  0.61990000  1
  C  C203  1  0.99520000  0.82830000  0.88010000  1
  N  N204  1  0.01710000  0.74740000  0.47710000  1
  N  N205  1  0.01710000  0.75260000  0.02290000  1
  N  N206  1  0.03310000  0.02750000  0.51470000  1
  N  N207  1  0.03310000  0.47250000  0.98530000  1
  N  N208  1  0.07540000  0.15500000  0.74400000  1
  N  N209  1  0.07540000  0.34500000  0.75600000  1
  N  N210  1  0.09640000  0.57710000  0.19980000  1
  N  N211  1  0.09640000  0.92290000  0.30020000  1
  N  N212  1  0.40360000  0.57710000  0.80020000  1
  N  N213  1  0.40360000  0.92290000  0.69980000  1
  N  N214  1  0.42460000  0.15500000  0.25600000  1
  N  N215  1  0.42460000  0.34500000  0.24400000  1
  N  N216  1  0.46690000  0.02750000  0.48530000  1
  N  N217  1  0.46690000  0.47250000  0.01470000  1
  N  N218  1  0.48290000  0.74740000  0.52290000  1
  N  N219  1  0.48290000  0.75260000  0.97710000  1
  N  N220  1  0.51710000  0.24740000  0.02290000  1
  N  N221  1  0.51710000  0.25260000  0.47710000  1
  N  N222  1  0.53310000  0.52750000  0.98530000  1
  N  N223  1  0.53310000  0.97250000  0.51470000  1
  N  N224  1  0.57540000  0.65500000  0.75600000  1
  N  N225  1  0.57540000  0.84500000  0.74400000  1
  N  N226  1  0.59640000  0.07710000  0.30020000  1
  N  N227  1  0.59640000  0.42290000  0.19980000  1
  N  N228  1  0.90360000  0.07710000  0.69980000  1
  N  N229  1  0.90360000  0.42290000  0.80020000  1
  N  N230  1  0.92460000  0.65500000  0.24400000  1
  N  N231  1  0.92460000  0.84500000  0.25600000  1
  N  N232  1  0.96690000  0.52750000  0.01470000  1
  N  N233  1  0.96690000  0.97250000  0.48530000  1
  N  N234  1  0.98290000  0.24740000  0.97710000  1
  N  N235  1  0.98290000  0.25260000  0.52290000  1
  O  O236  1  0.07800000  0.16130000  0.21939000  1
  O  O237  1  0.07800000  0.33870000  0.28061000  1
  O  O238  1  0.11240000  0.73390000  0.05910000  1
  O  O239  1  0.11240000  0.76610000  0.44090000  1
  O  O240  1  0.11530000  0.24210000  0.53840000  1
  O  O241  1  0.11530000  0.25790000  0.96160000  1
  O  O242  1  0.20830000  0.24570000  0.16380000  1
  O  O243  1  0.20830000  0.25430000  0.33620000  1
  O  O244  1  0.29170000  0.24570000  0.83620000  1
  O  O245  1  0.29170000  0.25430000  0.66380000  1
  O  O246  1  0.38470000  0.24210000  0.46160000  1
  O  O247  1  0.38470000  0.25790000  0.03840000  1
  O  O248  1  0.38760000  0.73390000  0.94090000  1
  O  O249  1  0.38760000  0.76610000  0.55910000  1
  O  O250  1  0.42200000  0.16130000  0.78061000  1
  O  O251  1  0.42200000  0.33870000  0.71939000  1
  O  O252  1  0.57800000  0.66130000  0.28061000  1
  O  O253  1  0.57800000  0.83870000  0.21939000  1
  O  O254  1  0.61240000  0.23390000  0.44090000  1
  O  O255  1  0.61240000  0.26610000  0.05910000  1
  O  O256  1  0.61530000  0.74210000  0.96160000  1
  O  O257  1  0.61530000  0.75790000  0.53840000  1
  O  O258  1  0.70830000  0.74570000  0.33620000  1
  O  O259  1  0.70830000  0.75430000  0.16380000  1
  O  O260  1  0.79170000  0.74570000  0.66380000  1
  O  O261  1  0.79170000  0.75430000  0.83620000  1
  O  O262  1  0.88470000  0.74210000  0.03840000  1
  O  O263  1  0.88470000  0.75790000  0.46160000  1
  O  O264  1  0.88760000  0.23390000  0.55910000  1
  O  O265  1  0.88760000  0.26610000  0.94090000  1
  O  O266  1  0.92200000  0.66130000  0.71939000  1
  O  O267  1  0.92200000  0.83870000  0.78061000  1
