# generated using pymatgen
data_CuH3C8NO4
_symmetry_space_group_name_H-M   'P 1'
_cell_length_a   20.26990000
_cell_length_b   27.16420000
_cell_length_c   27.16404162
_cell_angle_alpha   114.02874995
_cell_angle_beta   104.40213920
_cell_angle_gamma   104.40300000
_symmetry_Int_Tables_number   1
_chemical_formula_structural   CuH3C8NO4
_chemical_formula_sum   'Cu24 H72 C192 N24 O96'
_cell_volume   12151.73179003
_cell_formula_units_Z   24
loop_
 _symmetry_equiv_pos_site_id
 _symmetry_equiv_pos_as_xyz
  1  'x, y, z'
loop_
 _atom_site_type_symbol
 _atom_site_label
 _atom_site_symmetry_multiplicity
 _atom_site_fract_x
 _atom_site_fract_y
 _atom_site_fract_z
 _atom_site_occupancy
  Cu  Cu0  1  0.69922000  0.49797000  0.69285000  1
  Cu  Cu1  1  0.24032000  0.49858000  0.20614000  1
  Cu  Cu2  1  0.00637000  0.30715000  0.80512000  1
  Cu  Cu3  1  0.52075000  0.28699000  0.31276000  1
  Cu  Cu4  1  0.20799000  0.68724000  0.97423000  1
  Cu  Cu5  1  0.74174000  0.70756000  0.50142000  1
  Cu  Cu6  1  0.96582000  0.20614000  0.70756000  1
  Cu  Cu7  1  0.47849000  0.18887000  0.21114000  1
  Cu  Cu8  1  0.26735000  0.78886000  0.97773000  1
  Cu  Cu9  1  0.79875000  0.80512000  0.49797000  1
  Cu  Cu10  1  0.28962000  0.02227000  0.81113000  1
  Cu  Cu11  1  0.76624000  0.97423000  0.28699000  1
  Cu  Cu12  1  0.23376000  0.02577000  0.71301000  1
  Cu  Cu13  1  0.71038000  0.97773000  0.18887000  1
  Cu  Cu14  1  0.20125000  0.19488000  0.50203000  1
  Cu  Cu15  1  0.73265000  0.21114000  0.02227000  1
  Cu  Cu16  1  0.52151000  0.81113000  0.78886000  1
  Cu  Cu17  1  0.03418000  0.79386000  0.29244000  1
  Cu  Cu18  1  0.25826000  0.29244000  0.49858000  1
  Cu  Cu19  1  0.79201000  0.31276000  0.02577000  1
  Cu  Cu20  1  0.47925000  0.71301000  0.68724000  1
  Cu  Cu21  1  0.99363000  0.69285000  0.19488000  1
  Cu  Cu22  1  0.75968000  0.50142000  0.79386000  1
  Cu  Cu23  1  0.30078000  0.50203000  0.30715000  1
  H  H24  1  0.63490000  0.77220000  0.62070000  1
  H  H25  1  0.13050000  0.75480000  0.11370000  1
  H  H26  1  0.33030000  0.07240000  0.24490000  1
  H  H27  1  0.84360000  0.09760000  0.75280000  1
  H  H28  1  0.84600000  0.36690000  0.73940000  1
  H  H29  1  0.25080000  0.90420000  0.13080000  1
  H  H30  1  0.37570000  0.35890000  0.24520000  1
  H  H31  1  0.78370000  0.92560000  0.65240000  1
  H  H32  1  0.72380000  0.34680000  0.58820000  1
  H  H33  1  0.98580000  0.62070000  0.84850000  1
  H  H34  1  0.86870000  0.65240000  0.72680000  1
  H  H35  1  0.52090000  0.62750000  0.36690000  1
  H  H36  1  0.25400000  0.34480000  0.09760000  1
  H  H37  1  0.42230000  0.64250000  0.22920000  1
  H  H38  1  0.14190000  0.27320000  0.92560000  1
  H  H39  1  0.80690000  0.22920000  0.58670000  1
  H  H40  1  0.65560000  0.23680000  0.41770000  1
  H  H41  1  0.34660000  0.22660000  0.09580000  1
  H  H42  1  0.90920000  0.75280000  0.65520000  1
  H  H43  1  0.08540000  0.75510000  0.82750000  1
  H  H44  1  0.37960000  0.70740000  0.11780000  1
  H  H45  1  0.62300000  0.75860000  0.34680000  1
  H  H46  1  0.73820000  0.11780000  0.41040000  1
  H  H47  1  0.25790000  0.17250000  0.92760000  1
  H  H48  1  0.58120000  0.81910000  0.23680000  1
  H  H49  1  0.12000000  0.86920000  0.77340000  1
  H  H50  1  0.61980000  0.11010000  0.26330000  1
  H  H51  1  0.13730000  0.15150000  0.77220000  1
  H  H52  1  0.01680000  0.88630000  0.64110000  1
  H  H53  1  0.13560000  0.41180000  0.75860000  1
  H  H54  1  0.67220000  0.41040000  0.29260000  1
  H  H55  1  0.49030000  0.84680000  0.11010000  1
  H  H56  1  0.23790000  0.58230000  0.81910000  1
  H  H57  1  0.77980000  0.58670000  0.35750000  1
  H  H58  1  0.10660000  0.26060000  0.62750000  1
  H  H59  1  0.64350000  0.26330000  0.15320000  1
  H  H60  1  0.35650000  0.73670000  0.84680000  1
  H  H61  1  0.89340000  0.73940000  0.37250000  1
  H  H62  1  0.22020000  0.41330000  0.64250000  1
  H  H63  1  0.76210000  0.41770000  0.18090000  1
  H  H64  1  0.50970000  0.15320000  0.88990000  1
  H  H65  1  0.32780000  0.58960000  0.70740000  1
  H  H66  1  0.86440000  0.58820000  0.24140000  1
  H  H67  1  0.98320000  0.11370000  0.35890000  1
  H  H68  1  0.86270000  0.84850000  0.22780000  1
  H  H69  1  0.38020000  0.88990000  0.73670000  1
  H  H70  1  0.88000000  0.13080000  0.22660000  1
  H  H71  1  0.41880000  0.18090000  0.76320000  1
  H  H72  1  0.74210000  0.82750000  0.07240000  1
  H  H73  1  0.26180000  0.88220000  0.58960000  1
  H  H74  1  0.37700000  0.24140000  0.65320000  1
  H  H75  1  0.62040000  0.29260000  0.88220000  1
  H  H76  1  0.91460000  0.24490000  0.17250000  1
  H  H77  1  0.09080000  0.24720000  0.34480000  1
  H  H78  1  0.65340000  0.77340000  0.90420000  1
  H  H79  1  0.34440000  0.76320000  0.58230000  1
  H  H80  1  0.19310000  0.77080000  0.41330000  1
  H  H81  1  0.85810000  0.72680000  0.07440000  1
  H  H82  1  0.57770000  0.35750000  0.77080000  1
  H  H83  1  0.74600000  0.65520000  0.90240000  1
  H  H84  1  0.47910000  0.37250000  0.63310000  1
  H  H85  1  0.13130000  0.34760000  0.27320000  1
  H  H86  1  0.01420000  0.37930000  0.15150000  1
  H  H87  1  0.27620000  0.65320000  0.41180000  1
  H  H88  1  0.21630000  0.07440000  0.34760000  1
  H  H89  1  0.62430000  0.64110000  0.75480000  1
  H  H90  1  0.74920000  0.09580000  0.86920000  1
  H  H91  1  0.15400000  0.63310000  0.26060000  1
  H  H92  1  0.15640000  0.90240000  0.24720000  1
  H  H93  1  0.66970000  0.92760000  0.75510000  1
  H  H94  1  0.86950000  0.24520000  0.88630000  1
  H  H95  1  0.36510000  0.22780000  0.37930000  1
  C  C96  1  0.66080000  0.81260000  0.64480000  1
  C  C97  1  0.72330000  0.93850000  0.70640000  1
  C  C98  1  0.21300000  0.91190000  0.19450000  1
  C  C99  1  0.15400000  0.79530000  0.13530000  1
  C  C100  1  0.85440000  0.17690000  0.81390000  1
  C  C101  1  0.32020000  0.09400000  0.27670000  1
  C  C102  1  0.83150000  0.11730000  0.78410000  1
  C  C103  1  0.35250000  0.15810000  0.30230000  1
  C  C104  1  0.76100000  0.41670000  0.68810000  1
  C  C105  1  0.22410000  0.88340000  0.14440000  1
  C  C106  1  0.19410000  0.82230000  0.11430000  1
  C  C107  1  0.84490000  0.57560000  0.76220000  1
  C  C108  1  0.71180000  0.84280000  0.62780000  1
  C  C109  1  0.74690000  0.90570000  0.66030000  1
  C  C110  1  0.30840000  0.41730000  0.20660000  1
  C  C111  1  0.89820000  0.20660000  0.78930000  1
  C  C112  1  0.77680000  0.35990000  0.66780000  1
  C  C113  1  0.40930000  0.19170000  0.29330000  1
  C  C114  1  0.39400000  0.57760000  0.27640000  1
  C  C115  1  0.82280000  0.34500000  0.69860000  1
  C  C116  1  0.91600000  0.62780000  0.78500000  1
  C  C117  1  0.75110000  0.33330000  0.60860000  1
  C  C118  1  0.20190000  0.79050000  0.05790000  1
  C  C119  1  0.32250000  0.36300000  0.17690000  1
  C  C120  1  0.98400000  0.64480000  0.83220000  1
  C  C121  1  0.35870000  0.34000000  0.20470000  1
  C  C122  1  0.73070000  0.81340000  0.57560000  1
  C  C123  1  0.91340000  0.66030000  0.75460000  1
  C  C124  1  0.45970000  0.62860000  0.29380000  1
  C  C125  1  0.28580000  0.33320000  0.11730000  1
  C  C126  1  0.83410000  0.29380000  0.66520000  1
  C  C127  1  0.52220000  0.64640000  0.34500000  1
  C  C128  1  0.88240000  0.27640000  0.69880000  1
  C  C129  1  0.76670000  0.28580000  0.57990000  1
  C  C130  1  0.37180000  0.29200000  0.17770000  1
  C  C131  1  0.05020000  0.69770000  0.85580000  1
  C  C132  1  0.80320000  0.26460000  0.60770000  1
  C  C133  1  0.46140000  0.65690000  0.26460000  1
  C  C134  1  0.41140000  0.26740000  0.20950000  1
  C  C135  1  0.30110000  0.28260000  0.08810000  1
  C  C136  1  0.98310000  0.70640000  0.76790000  1
  C  C137  1  0.11600000  0.70670000  0.89840000  1
  C  C138  1  0.58310000  0.69210000  0.35990000  1
  C  C139  1  0.34070000  0.26100000  0.11660000  1
  C  C140  1  0.04350000  0.72330000  0.81730000  1
  C  C141  1  0.51910000  0.70590000  0.28580000  1
  C  C142  1  0.65570000  0.72860000  0.41670000  1
  C  C143  1  0.58223333  0.72473333  0.33333333  1
  C  C144  1  0.15880000  0.24540000  0.90570000  1
  C  C145  1  0.65990000  0.20220000  0.39530000  1
  C  C146  1  0.08270000  0.23780000  0.81340000  1
  C  C147  1  0.69960000  0.17990000  0.42540000  1
  C  C148  1  0.57930000  0.19890000  0.30410000  1
  C  C149  1  0.21520000  0.23210000  0.93850000  1
  C  C150  1  0.95260000  0.78410000  0.66680000  1
  C  C151  1  0.13100000  0.21500000  0.84280000  1
  C  C152  1  0.42150000  0.74090000  0.13200000  1
  C  C153  1  0.62730000  0.17640000  0.33560000  1
  C  C154  1  0.48030000  0.75450000  0.17990000  1
  C  C155  1  0.01850000  0.80550000  0.71740000  1
  C  C156  1  0.35430000  0.75830000  0.04920000  1
  C  C157  1  0.89110000  0.78930000  0.58270000  1
  C  C158  1  0.41800000  0.77030000  0.10380000  1
  C  C159  1  0.71050000  0.13200000  0.39110000  1
  C  C160  1  0.22620000  0.18270000  0.90600000  1
  C  C161  1  0.95950000  0.81390000  0.63700000  1
  C  C162  1  0.63990000  0.12840000  0.30410000  1
  C  C163  1  0.15180000  0.16780000  0.81260000  1
  C  C164  1  0.54230000  0.80690000  0.20220000  1
  C  C165  1  0.07970000  0.85560000  0.73900000  1
  C  C166  1  0.07290000  0.31190000  0.72860000  1
  C  C167  1  0.68580000  0.10380000  0.33350000  1
  C  C168  1  0.19440000  0.14420000  0.84190000  1
  C  C169  1  0.59600000  0.29090000  0.24170000  1
  C  C170  1  0.01870000  0.86470000  0.66000000  1
  C  C171  1  0.48850000  0.82430000  0.12840000  1
  C  C172  1  0.07980000  0.88570000  0.70800000  1
  C  C173  1  0.54910000  0.84080000  0.17640000  1
  C  C174  1  0.27520000  0.69590000  0.89480000  1
  C  C175  1  0.81640000  0.69880000  0.42240000  1
  C  C176  1  0.69490000  0.04920000  0.29090000  1
  C  C177  1  0.21760000  0.10160000  0.80830000  1
  C  C178  1  0.14400000  0.94210000  0.73260000  1
  C  C179  1  0.10900000  0.33220000  0.69210000  1
  C  C180  1  0.14250000  0.39136667  0.72470000  1
  C  C181  1  0.64770000  0.33350000  0.22970000  1
  C  C182  1  0.61960000  0.89480000  0.19890000  1
  C  C183  1  0.68060000  0.39110000  0.25910000  1
  C  C184  1  0.29170000  0.66440000  0.84080000  1
  C  C185  1  0.26460000  0.60470000  0.80690000  1
  C  C186  1  0.83110000  0.66520000  0.37140000  1
  C  C187  1  0.80450000  0.60770000  0.34310000  1
  C  C188  1  0.12420000  0.30140000  0.64640000  1
  C  C189  1  0.72580000  0.42540000  0.24550000  1
  C  C190  1  0.18680000  0.42010000  0.70590000  1
  C  C191  1  0.66420000  0.30410000  0.17570000  1
  C  C192  1  0.33580000  0.69590000  0.82430000  1
  C  C193  1  0.81320000  0.57990000  0.29410000  1
  C  C194  1  0.27420000  0.57460000  0.75450000  1
  C  C195  1  0.87580000  0.69860000  0.35360000  1
  C  C196  1  0.19550000  0.39230000  0.65690000  1
  C  C197  1  0.16890000  0.33480000  0.62860000  1
  C  C198  1  0.73540000  0.39530000  0.19310000  1
  C  C199  1  0.70830000  0.33560000  0.15920000  1
  C  C200  1  0.31940000  0.60890000  0.74090000  1
  C  C201  1  0.38040000  0.10520000  0.80110000  1
  C  C202  1  0.35230000  0.66650000  0.77030000  1
  C  C203  1  0.85750000  0.60863333  0.27530000  1
  C  C204  1  0.89100000  0.66780000  0.30790000  1
  C  C205  1  0.85600000  0.05790000  0.26740000  1
  C  C206  1  0.78240000  0.89840000  0.19170000  1
  C  C207  1  0.30510000  0.95080000  0.70910000  1
  C  C208  1  0.18360000  0.30120000  0.57760000  1
  C  C209  1  0.72480000  0.30410000  0.10520000  1
  C  C210  1  0.45090000  0.15920000  0.82360000  1
  C  C211  1  0.92020000  0.11430000  0.29200000  1
  C  C212  1  0.51150000  0.17570000  0.87160000  1
  C  C213  1  0.98130000  0.13530000  0.34000000  1
  C  C214  1  0.40400000  0.70910000  0.75830000  1
  C  C215  1  0.80560000  0.85580000  0.15810000  1
  C  C216  1  0.31420000  0.89620000  0.66650000  1
  C  C217  1  0.92710000  0.68810000  0.27140000  1
  C  C218  1  0.92030000  0.14440000  0.26100000  1
  C  C219  1  0.45770000  0.19310000  0.79780000  1
  C  C220  1  0.84820000  0.83220000  0.18740000  1
  C  C221  1  0.36010000  0.87160000  0.69590000  1
  C  C222  1  0.04050000  0.18610000  0.36300000  1
  C  C223  1  0.77380000  0.81730000  0.09400000  1
  C  C224  1  0.28950000  0.86800000  0.60890000  1
  C  C225  1  0.58200000  0.22970000  0.89620000  1
  C  C226  1  0.10890000  0.21070000  0.41730000  1
  C  C227  1  0.64570000  0.24170000  0.95080000  1
  C  C228  1  0.98150000  0.19450000  0.28260000  1
  C  C229  1  0.51970000  0.24550000  0.82010000  1
  C  C230  1  0.37270000  0.82360000  0.66440000  1
  C  C231  1  0.57850000  0.25910000  0.86800000  1
  C  C232  1  0.86900000  0.78500000  0.15720000  1
  C  C233  1  0.04740000  0.21590000  0.33320000  1
  C  C234  1  0.78480000  0.76790000  0.06150000  1
  C  C235  1  0.42070000  0.80110000  0.69590000  1
  C  C236  1  0.30040000  0.82010000  0.57460000  1
  C  C237  1  0.91730000  0.76220000  0.18660000  1
  C  C238  1  0.34010000  0.79780000  0.60470000  1
  C  C239  1  0.84120000  0.75460000  0.09430000  1
  C  C240  1  0.41776667  0.27526667  0.66666667  1
  C  C241  1  0.34430000  0.27140000  0.58330000  1
  C  C242  1  0.48090000  0.29410000  0.71420000  1
  C  C243  1  0.95650000  0.27670000  0.18270000  1
  C  C244  1  0.65930000  0.73900000  0.88340000  1
  C  C245  1  0.41690000  0.30790000  0.64010000  1
  C  C246  1  0.88400000  0.29330000  0.10160000  1
  C  C247  1  0.01690000  0.29360000  0.23210000  1
  C  C248  1  0.69890000  0.71740000  0.91190000  1
  C  C249  1  0.58860000  0.73260000  0.79050000  1
  C  C250  1  0.53860000  0.34310000  0.73540000  1
  C  C251  1  0.19680000  0.73540000  0.39230000  1
  C  C252  1  0.94980000  0.30230000  0.14420000  1
  C  C253  1  0.62820000  0.70800000  0.82230000  1
  C  C254  1  0.23330000  0.71420000  0.42010000  1
  C  C255  1  0.11760000  0.72360000  0.30120000  1
  C  C256  1  0.47780000  0.35360000  0.65500000  1
  C  C257  1  0.16590000  0.70620000  0.33480000  1
  C  C258  1  0.71420000  0.66680000  0.88270000  1
  C  C259  1  0.54030000  0.37140000  0.70620000  1
  C  C260  1  0.08660000  0.33970000  0.24540000  1
  C  C261  1  0.26930000  0.18660000  0.42440000  1
  C  C262  1  0.64130000  0.66000000  0.79530000  1
  C  C263  1  0.01600000  0.35520000  0.16780000  1
  C  C264  1  0.67750000  0.63700000  0.82310000  1
  C  C265  1  0.79810000  0.20950000  0.94210000  1
  C  C266  1  0.24890000  0.66670000  0.39140000  1
  C  C267  1  0.08400000  0.37220000  0.21500000  1
  C  C268  1  0.17720000  0.65500000  0.30140000  1
  C  C269  1  0.60600000  0.42240000  0.72360000  1
  C  C270  1  0.59070000  0.80830000  0.70670000  1
  C  C271  1  0.22320000  0.64010000  0.33220000  1
  C  C272  1  0.10180000  0.79340000  0.21070000  1
  C  C273  1  0.69160000  0.58270000  0.79340000  1
  C  C274  1  0.25310000  0.09430000  0.33970000  1
  C  C275  1  0.28820000  0.15720000  0.37220000  1
  C  C276  1  0.15510000  0.42440000  0.23780000  1
  C  C277  1  0.80590000  0.17770000  0.88570000  1
  C  C278  1  0.77590000  0.11660000  0.85560000  1
  C  C279  1  0.23900000  0.58330000  0.31190000  1
  C  C280  1  0.64750000  0.84190000  0.69770000  1
  C  C281  1  0.16850000  0.88270000  0.21590000  1
  C  C282  1  0.67980000  0.90600000  0.72330000  1
  C  C283  1  0.14560000  0.82310000  0.18610000  1
  C  C284  1  0.84600000  0.20470000  0.86470000  1
  C  C285  1  0.78700000  0.08810000  0.80550000  1
  C  C286  1  0.27670000  0.06150000  0.29360000  1
  C  C287  1  0.33920000  0.18740000  0.35520000  1
  N  N288  1  0.25190000  0.97710000  0.22350000  1
  N  N289  1  0.76310000  0.99820000  0.73190000  1
  N  N290  1  0.72410000  0.25030000  0.51190000  1
  N  N291  1  0.96880000  0.73190000  0.73370000  1
  N  N292  1  0.23510000  0.26630000  0.99820000  1
  N  N293  1  0.27480000  0.24640000  0.02290000  1
  N  N294  1  0.74020000  0.20960000  0.48480000  1
  N  N295  1  0.46940000  0.72480000  0.20960000  1
  N  N296  1  0.02840000  0.77650000  0.75360000  1
  N  N297  1  0.52620000  0.73840000  0.25030000  1
  N  N298  1  0.74460000  0.48480000  0.27520000  1
  N  N299  1  0.21220000  0.48810000  0.73840000  1
  N  N300  1  0.78780000  0.51190000  0.26160000  1
  N  N301  1  0.25540000  0.51520000  0.72480000  1
  N  N302  1  0.47380000  0.26160000  0.74970000  1
  N  N303  1  0.97160000  0.22350000  0.24640000  1
  N  N304  1  0.53060000  0.27520000  0.79040000  1
  N  N305  1  0.25980000  0.79040000  0.51520000  1
  N  N306  1  0.72520000  0.75360000  0.97710000  1
  N  N307  1  0.76490000  0.73370000  0.00180000  1
  N  N308  1  0.03120000  0.26810000  0.26630000  1
  N  N309  1  0.27590000  0.74970000  0.48810000  1
  N  N310  1  0.23690000  0.00180000  0.26810000  1
  N  N311  1  0.74810000  0.02290000  0.77650000  1
  O  O312  1  0.84636000  0.56292000  0.80746000  1
  O  O313  1  0.78593000  0.43546000  0.74563000  1
  O  O314  1  0.72452000  0.43637000  0.66879000  1
  O  O315  1  0.32445000  0.43520000  0.26175000  1
  O  O316  1  0.39261000  0.56005000  0.31588000  1
  O  O317  1  0.79607000  0.55595000  0.71816000  1
  O  O318  1  0.27658000  0.43588000  0.17746000  1
  O  O319  1  0.34032000  0.56003000  0.23253000  1
  O  O320  1  0.93730000  0.26175000  0.82655000  1
  O  O321  1  0.44253000  0.24324000  0.32495000  1
  O  O322  1  0.18896000  0.73506000  0.03702000  1
  O  O323  1  0.71656000  0.75546000  0.56292000  1
  O  O324  1  0.90088000  0.17746000  0.74158000  1
  O  O325  1  0.40908000  0.15893000  0.24291000  1
  O  O326  1  0.92327000  0.31588000  0.75583000  1
  O  O327  1  0.45390000  0.30196000  0.26494000  1
  O  O328  1  0.23656000  0.81607000  0.03731000  1
  O  O329  1  0.11758000  0.67505000  0.91829000  1
  O  O330  1  0.75988000  0.83779000  0.55595000  1
  O  O331  1  0.64953000  0.68983000  0.43546000  1
  O  O332  1  0.89221000  0.23253000  0.67250000  1
  O  O333  1  0.42049000  0.22124000  0.18393000  1
  O  O334  1  0.07791000  0.28184000  0.83779000  1
  O  O335  1  0.58392000  0.24676000  0.33820000  1
  O  O336  1  0.16617000  0.75709000  0.91602000  1
  O  O337  1  0.30344000  0.71029000  0.03313000  1
  O  O338  1  0.71185000  0.76758000  0.43637000  1
  O  O339  1  0.84070000  0.74158000  0.56412000  1
  O  O340  1  0.03890000  0.19254000  0.75546000  1
  O  O341  1  0.05573000  0.33121000  0.76758000  1
  O  O342  1  0.54940000  0.16689000  0.24911000  1
  O  O343  1  0.59315000  0.32284000  0.28971000  1
  O  O344  1  0.34780000  0.79870000  0.03760000  1
  O  O345  1  0.88925000  0.82655000  0.56480000  1
  O  O346  1  0.24572000  0.66180000  0.90856000  1
  O  O347  1  0.78029000  0.67250000  0.43997000  1
  O  O348  1  0.54910000  0.23890000  0.20130000  1
  O  O349  1  0.04030000  0.25437000  0.68983000  1
  O  O350  1  0.30029000  0.75089000  0.91778000  1
  O  O351  1  0.83256000  0.75583000  0.43995000  1
  O  O352  1  0.72969000  0.03313000  0.32284000  1
  O  O353  1  0.25015000  0.08398000  0.84107000  1
  O  O354  1  0.66284000  0.90856000  0.24676000  1
  O  O355  1  0.19925000  0.96269000  0.77876000  1
  O  O356  1  0.19929000  0.08171000  0.75676000  1
  O  O357  1  0.61749000  0.91778000  0.16689000  1
  O  O358  1  0.68980000  0.03760000  0.23890000  1
  O  O359  1  0.15194000  0.96298000  0.69804000  1
  O  O360  1  0.84806000  0.03702000  0.30196000  1
  O  O361  1  0.31020000  0.96240000  0.76110000  1
  O  O362  1  0.38251000  0.08222000  0.83311000  1
  O  O363  1  0.80071000  0.91829000  0.24324000  1
  O  O364  1  0.80075000  0.03731000  0.22124000  1
  O  O365  1  0.33716000  0.09144000  0.75324000  1
  O  O366  1  0.74985000  0.91602000  0.15893000  1
  O  O367  1  0.27031000  0.96687000  0.67716000  1
  O  O368  1  0.16744000  0.24417000  0.56005000  1
  O  O369  1  0.69971000  0.24911000  0.08222000  1
  O  O370  1  0.95970000  0.74563000  0.31017000  1
  O  O371  1  0.45090000  0.76110000  0.79870000  1
  O  O372  1  0.21971000  0.32750000  0.56003000  1
  O  O373  1  0.75428000  0.33820000  0.09144000  1
  O  O374  1  0.11075000  0.17345000  0.43520000  1
  O  O375  1  0.65220000  0.20130000  0.96240000  1
  O  O376  1  0.40685000  0.67716000  0.71029000  1
  O  O377  1  0.45060000  0.83311000  0.75089000  1
  O  O378  1  0.94427000  0.66879000  0.23242000  1
  O  O379  1  0.96110000  0.80746000  0.24454000  1
  O  O380  1  0.15930000  0.25842000  0.43588000  1
  O  O381  1  0.28815000  0.23242000  0.56363000  1
  O  O382  1  0.69656000  0.28971000  0.96687000  1
  O  O383  1  0.83383000  0.24291000  0.08398000  1
  O  O384  1  0.41608000  0.75324000  0.66180000  1
  O  O385  1  0.92209000  0.71816000  0.16221000  1
  O  O386  1  0.57951000  0.77876000  0.81607000  1
  O  O387  1  0.10779000  0.76747000  0.32750000  1
  O  O388  1  0.35047000  0.31017000  0.56454000  1
  O  O389  1  0.24012000  0.16221000  0.44405000  1
  O  O390  1  0.88242000  0.32495000  0.08171000  1
  O  O391  1  0.76344000  0.18393000  0.96269000  1
  O  O392  1  0.54610000  0.69804000  0.73506000  1
  O  O393  1  0.07673000  0.68412000  0.24417000  1
  O  O394  1  0.59092000  0.84107000  0.75709000  1
  O  O395  1  0.09912000  0.82254000  0.25842000  1
  O  O396  1  0.28344000  0.24454000  0.43708000  1
  O  O397  1  0.81104000  0.26494000  0.96298000  1
  O  O398  1  0.55747000  0.75676000  0.67505000  1
  O  O399  1  0.06270000  0.73825000  0.17345000  1
  O  O400  1  0.65968000  0.43997000  0.76747000  1
  O  O401  1  0.72342000  0.56412000  0.82254000  1
  O  O402  1  0.20393000  0.44405000  0.28184000  1
  O  O403  1  0.60739000  0.43995000  0.68412000  1
  O  O404  1  0.67555000  0.56480000  0.73825000  1
  O  O405  1  0.27548000  0.56363000  0.33121000  1
  O  O406  1  0.21407000  0.56454000  0.25437000  1
  O  O407  1  0.15364000  0.43708000  0.19254000  1
