# generated using pymatgen
data_CdH12C12(NO)4
_symmetry_space_group_name_H-M   'P 1'
_cell_length_a   12.07360000
_cell_length_b   16.17150000
_cell_length_c   16.17158700
_cell_angle_alpha   114.02290565
_cell_angle_beta   104.41074002
_cell_angle_gamma   104.41000000
_symmetry_Int_Tables_number   1
_chemical_formula_structural   CdH12C12(NO)4
_chemical_formula_sum   'Cd6 H72 C72 N24 O24'
_cell_volume   2565.09228305
_cell_formula_units_Z   6
loop_
 _symmetry_equiv_pos_site_id
 _symmetry_equiv_pos_as_xyz
  1  'x, y, z'
loop_
 _atom_site_type_symbol
 _atom_site_label
 _atom_site_symmetry_multiplicity
 _atom_site_fract_x
 _atom_site_fract_y
 _atom_site_fract_z
 _atom_site_occupancy
  Cd  Cd0  1  0.75000000  0.25700000  0.74300000  1
  Cd  Cd1  1  0.50700000  0.51400000  0.25700000  1
  Cd  Cd2  1  0.00700000  0.25700000  0.51400000  1
  Cd  Cd3  1  0.99300000  0.74300000  0.48600000  1
  Cd  Cd4  1  0.49300000  0.48600000  0.74300000  1
  Cd  Cd5  1  0.25000000  0.74300000  0.25700000  1
  H  H6  1  0.37090000  0.31580000  0.36360000  1
  H  H7  1  0.47840000  0.60980000  0.46930000  1
  H  H8  1  0.49090000  0.85950000  0.46930000  1
  H  H9  1  0.00730000  0.63640000  0.95220000  1
  H  H10  1  0.69480000  0.85500000  0.60910000  1
  H  H11  1  0.72800000  0.00870000  0.64140000  1
  H  H12  1  0.83970000  0.00510000  0.71190000  1
  H  H13  1  0.49270000  0.04780000  0.36360000  1
  H  H14  1  0.99090000  0.46930000  0.85950000  1
  H  H15  1  0.91430000  0.60910000  0.75410000  1
  H  H16  1  0.16540000  0.29320000  0.00510000  1
  H  H17  1  0.87220000  0.71190000  0.70680000  1
  H  H18  1  0.82000000  0.51780000  0.65130000  1
  H  H19  1  0.69780000  0.86650000  0.51780000  1
  H  H20  1  0.58570000  0.24590000  0.39090000  1
  H  H21  1  0.68000000  0.34870000  0.48220000  1
  H  H22  1  0.22800000  0.64140000  0.00870000  1
  H  H23  1  0.58660000  0.36730000  0.35860000  1
  H  H24  1  0.28070000  0.36730000  0.00870000  1
  H  H25  1  0.91340000  0.64140000  0.63270000  1
  H  H26  1  0.16870000  0.34870000  0.86650000  1
  H  H27  1  0.16020000  0.24590000  0.85500000  1
  H  H28  1  0.66870000  0.86650000  0.34870000  1
  H  H29  1  0.19780000  0.51780000  0.86650000  1
  H  H30  1  0.33970000  0.71190000  0.00510000  1
  H  H31  1  0.62780000  0.29320000  0.28810000  1
  H  H32  1  0.19480000  0.60910000  0.85500000  1
  H  H33  1  0.97840000  0.46930000  0.60980000  1
  H  H34  1  0.05510000  0.04780000  0.68420000  1
  H  H35  1  0.66540000  0.00510000  0.29320000  1
  H  H36  1  0.78070000  0.00870000  0.36730000  1
  H  H37  1  0.66020000  0.85500000  0.24590000  1
  H  H38  1  0.12910000  0.63640000  0.68420000  1
  H  H39  1  0.86860000  0.85950000  0.39020000  1
  H  H40  1  0.63140000  0.60980000  0.14050000  1
  H  H41  1  0.44490000  0.31580000  0.95220000  1
  H  H42  1  0.55510000  0.68420000  0.04780000  1
  H  H43  1  0.36860000  0.39020000  0.85950000  1
  H  H44  1  0.13140000  0.14050000  0.60980000  1
  H  H45  1  0.87090000  0.36360000  0.31580000  1
  H  H46  1  0.33980000  0.14500000  0.75410000  1
  H  H47  1  0.21930000  0.99130000  0.63270000  1
  H  H48  1  0.33460000  0.99490000  0.70680000  1
  H  H49  1  0.94490000  0.95220000  0.31580000  1
  H  H50  1  0.02160000  0.53070000  0.39020000  1
  H  H51  1  0.80520000  0.39090000  0.14500000  1
  H  H52  1  0.37220000  0.70680000  0.71190000  1
  H  H53  1  0.66030000  0.28810000  0.99490000  1
  H  H54  1  0.80220000  0.48220000  0.13350000  1
  H  H55  1  0.33130000  0.13350000  0.65130000  1
  H  H56  1  0.83980000  0.75410000  0.14500000  1
  H  H57  1  0.83130000  0.65130000  0.13350000  1
  H  H58  1  0.08660000  0.35860000  0.36730000  1
  H  H59  1  0.71930000  0.63270000  0.99130000  1
  H  H60  1  0.41340000  0.63270000  0.64140000  1
  H  H61  1  0.77200000  0.35860000  0.99130000  1
  H  H62  1  0.32000000  0.65130000  0.51780000  1
  H  H63  1  0.41430000  0.75410000  0.60910000  1
  H  H64  1  0.30220000  0.13350000  0.48220000  1
  H  H65  1  0.18000000  0.48220000  0.34870000  1
  H  H66  1  0.12780000  0.28810000  0.29320000  1
  H  H67  1  0.83460000  0.70680000  0.99490000  1
  H  H68  1  0.08570000  0.39090000  0.24590000  1
  H  H69  1  0.00910000  0.53070000  0.14050000  1
  H  H70  1  0.50730000  0.95220000  0.63640000  1
  H  H71  1  0.16030000  0.99490000  0.28810000  1
  H  H72  1  0.27200000  0.99130000  0.35860000  1
  H  H73  1  0.30520000  0.14500000  0.39090000  1
  H  H74  1  0.99270000  0.36360000  0.04780000  1
  H  H75  1  0.50910000  0.14050000  0.53070000  1
  H  H76  1  0.52160000  0.39020000  0.53070000  1
  H  H77  1  0.62910000  0.68420000  0.63640000  1
  C  C78  1  0.94210000  0.57920000  0.93410000  1
  C  C79  1  0.27380000  0.41950000  0.26020000  1
  C  C80  1  0.93250000  0.48660000  0.88300000  1
  C  C81  1  0.56750000  0.11700000  0.51340000  1
  C  C82  1  0.63710000  0.64510000  0.57920000  1
  C  C83  1  0.55410000  0.60360000  0.48660000  1
  C  C84  1  0.83580000  0.58420000  0.69950000  1
  C  C85  1  0.55790000  0.06590000  0.42080000  1
  C  C86  1  0.98640000  0.26020000  0.84070000  1
  C  C87  1  0.23150000  0.52380000  0.08530000  1
  C  C88  1  0.79720000  0.98820000  0.64420000  1
  C  C89  1  0.74840000  0.88470000  0.58420000  1
  C  C90  1  0.84700000  0.64420000  0.65600000  1
  C  C91  1  0.19100000  0.34400000  0.98820000  1
  C  C92  1  0.73150000  0.08530000  0.52380000  1
  C  C93  1  0.48640000  0.84070000  0.26020000  1
  C  C94  1  0.70770000  0.56150000  0.47620000  1
  C  C95  1  0.66420000  0.30050000  0.41580000  1
  C  C96  1  0.13630000  0.30050000  0.88470000  1
  C  C97  1  0.35380000  0.56150000  0.08530000  1
  C  C98  1  0.85430000  0.84070000  0.58050000  1
  C  C99  1  0.85380000  0.08530000  0.56150000  1
  C  C100  1  0.65300000  0.34400000  0.35580000  1
  C  C101  1  0.29720000  0.64420000  0.98820000  1
  C  C102  1  0.63630000  0.88470000  0.30050000  1
  C  C103  1  0.69100000  0.98820000  0.34400000  1
  C  C104  1  0.79230000  0.52380000  0.43850000  1
  C  C105  1  0.77380000  0.26020000  0.41950000  1
  C  C106  1  0.00800000  0.06590000  0.64510000  1
  C  C107  1  0.24840000  0.58420000  0.88470000  1
  C  C108  1  0.54950000  0.60360000  0.11700000  1
  C  C109  1  0.50800000  0.64510000  0.06590000  1
  C  C110  1  0.04950000  0.11700000  0.60360000  1
  C  C111  1  0.05410000  0.48660000  0.60360000  1
  C  C112  1  0.64570000  0.41950000  0.15930000  1
  C  C113  1  0.13710000  0.57920000  0.64510000  1
  C  C114  1  0.86290000  0.42080000  0.35490000  1
  C  C115  1  0.35430000  0.58050000  0.84070000  1
  C  C116  1  0.94590000  0.51340000  0.39640000  1
  C  C117  1  0.95050000  0.88300000  0.39640000  1
  C  C118  1  0.49200000  0.35490000  0.93410000  1
  C  C119  1  0.45050000  0.39640000  0.88300000  1
  C  C120  1  0.75160000  0.41580000  0.11530000  1
  C  C121  1  0.99200000  0.93410000  0.35490000  1
  C  C122  1  0.22620000  0.73980000  0.58050000  1
  C  C123  1  0.20770000  0.47620000  0.56150000  1
  C  C124  1  0.30900000  0.01180000  0.65600000  1
  C  C125  1  0.36370000  0.11530000  0.69950000  1
  C  C126  1  0.70280000  0.35580000  0.01180000  1
  C  C127  1  0.34700000  0.65600000  0.64420000  1
  C  C128  1  0.14620000  0.91470000  0.43850000  1
  C  C129  1  0.14570000  0.15930000  0.41950000  1
  C  C130  1  0.64620000  0.43850000  0.91470000  1
  C  C131  1  0.86370000  0.69950000  0.11530000  1
  C  C132  1  0.33580000  0.69950000  0.58420000  1
  C  C133  1  0.29230000  0.43850000  0.52380000  1
  C  C134  1  0.51360000  0.15930000  0.73980000  1
  C  C135  1  0.26850000  0.91470000  0.47620000  1
  C  C136  1  0.80900000  0.65600000  0.01180000  1
  C  C137  1  0.15300000  0.35580000  0.34400000  1
  C  C138  1  0.25160000  0.11530000  0.41580000  1
  C  C139  1  0.20280000  0.01180000  0.35580000  1
  C  C140  1  0.76850000  0.47620000  0.91470000  1
  C  C141  1  0.01360000  0.73980000  0.15930000  1
  C  C142  1  0.44210000  0.93410000  0.57920000  1
  C  C143  1  0.16420000  0.41580000  0.30050000  1
  C  C144  1  0.44590000  0.39640000  0.51340000  1
  C  C145  1  0.36290000  0.35490000  0.42080000  1
  C  C146  1  0.43250000  0.88300000  0.48660000  1
  C  C147  1  0.06750000  0.51340000  0.11700000  1
  C  C148  1  0.72620000  0.58050000  0.73980000  1
  C  C149  1  0.05790000  0.42080000  0.06590000  1
  N  N150  1  0.17560000  0.57840000  0.12970000  1
  N  N151  1  0.67560000  0.12970000  0.57840000  1
  N  N152  1  0.16170000  0.42620000  0.04520000  1
  N  N153  1  0.73550000  0.61900000  0.57380000  1
  N  N154  1  0.59720000  0.55130000  0.42160000  1
  N  N155  1  0.66170000  0.04520000  0.42620000  1
  N  N156  1  0.88350000  0.04520000  0.61900000  1
  N  N157  1  0.45410000  0.55130000  0.12970000  1
  N  N158  1  0.38350000  0.61900000  0.04520000  1
  N  N159  1  0.76450000  0.42620000  0.38100000  1
  N  N160  1  0.95410000  0.12970000  0.55130000  1
  N  N161  1  0.90280000  0.57840000  0.44870000  1
  N  N162  1  0.09720000  0.42160000  0.55130000  1
  N  N163  1  0.04590000  0.87030000  0.44870000  1
  N  N164  1  0.23550000  0.57380000  0.61900000  1
  N  N165  1  0.61650000  0.38100000  0.95480000  1
  N  N166  1  0.54590000  0.44870000  0.87030000  1
  N  N167  1  0.11650000  0.95480000  0.38100000  1
  N  N168  1  0.33830000  0.95480000  0.57380000  1
  N  N169  1  0.40280000  0.44870000  0.57840000  1
  N  N170  1  0.26450000  0.38100000  0.42620000  1
  N  N171  1  0.83830000  0.57380000  0.95480000  1
  N  N172  1  0.32440000  0.87030000  0.42160000  1
  N  N173  1  0.82440000  0.42160000  0.87030000  1
  O  O174  1  0.32090000  0.50660000  0.28830000  1
  O  O175  1  0.89610000  0.21840000  0.85130000  1
  O  O176  1  0.32230000  0.36710000  0.21840000  1
  O  O177  1  0.39610000  0.85130000  0.21840000  1
  O  O178  1  0.46740000  0.78170000  0.28830000  1
  O  O179  1  0.96740000  0.28830000  0.78170000  1
  O  O180  1  0.82090000  0.28830000  0.50660000  1
  O  O181  1  0.81430000  0.78170000  0.49340000  1
  O  O182  1  0.95520000  0.85130000  0.63290000  1
  O  O183  1  0.54480000  0.36710000  0.14870000  1
  O  O184  1  0.82230000  0.21840000  0.36710000  1
  O  O185  1  0.68570000  0.50660000  0.21830000  1
  O  O186  1  0.31430000  0.49340000  0.78170000  1
  O  O187  1  0.17770000  0.78160000  0.63290000  1
  O  O188  1  0.45520000  0.63290000  0.85130000  1
  O  O189  1  0.04480000  0.14870000  0.36710000  1
  O  O190  1  0.18570000  0.21830000  0.50660000  1
  O  O191  1  0.17910000  0.71170000  0.49340000  1
  O  O192  1  0.03260000  0.71170000  0.21830000  1
  O  O193  1  0.53260000  0.21830000  0.71170000  1
  O  O194  1  0.60390000  0.14870000  0.78160000  1
  O  O195  1  0.67770000  0.63290000  0.78160000  1
  O  O196  1  0.10390000  0.78160000  0.14870000  1
  O  O197  1  0.67910000  0.49340000  0.71170000  1
