# generated using pymatgen
data_Ni2S(OF)4
_symmetry_space_group_name_H-M   'P 1'
_cell_length_a   8.90980000
_cell_length_b   10.87220000
_cell_length_c   10.87220000
_cell_angle_alpha   90.00000000
_cell_angle_beta   90.00000000
_cell_angle_gamma   90.00000000
_symmetry_Int_Tables_number   1
_chemical_formula_structural   Ni2S(OF)4
_chemical_formula_sum   'Ni8 S4 O16 F16'
_cell_volume   1053.18052866
_cell_formula_units_Z   4
loop_
 _symmetry_equiv_pos_site_id
 _symmetry_equiv_pos_as_xyz
  1  'x, y, z'
loop_
 _atom_site_type_symbol
 _atom_site_label
 _atom_site_symmetry_multiplicity
 _atom_site_fract_x
 _atom_site_fract_y
 _atom_site_fract_z
 _atom_site_occupancy
  Ni  Ni0  1  0.09935000  0.10031000  0.89726000  1
  Ni  Ni1  1  0.34935000  0.10274000  0.10031000  1
  Ni  Ni2  1  0.17192000  0.38473000  0.44291000  1
  Ni  Ni3  1  0.92192000  0.44291000  0.61527000  1
  Ni  Ni4  1  0.42192000  0.55709000  0.38473000  1
  Ni  Ni5  1  0.67192000  0.61527000  0.55709000  1
  Ni  Ni6  1  0.84935000  0.89726000  0.89969000  1
  Ni  Ni7  1  0.59935000  0.89969000  0.10274000  1
  S  S8  1  0.03200000  0.16034000  0.60755000  1
  S  S9  1  0.28200000  0.39245000  0.16034000  1
  S  S10  1  0.78200000  0.60755000  0.83966000  1
  S  S11  1  0.53200000  0.83966000  0.39245000  1
  O  O12  1  0.93530000  0.06600000  0.55400000  1
  O  O13  1  0.12120000  0.10570000  0.70830000  1
  O  O14  1  0.13630000  0.20710000  0.51260000  1
  O  O15  1  0.93850000  0.26130000  0.65910000  1
  O  O16  1  0.37120000  0.29170000  0.10570000  1
  O  O17  1  0.18850000  0.34090000  0.26130000  1
  O  O18  1  0.18530000  0.44600000  0.06600000  1
  O  O19  1  0.38630000  0.48740000  0.20710000  1
  O  O20  1  0.88630000  0.51260000  0.79290000  1
  O  O21  1  0.68530000  0.55400000  0.93400000  1
  O  O22  1  0.68850000  0.65910000  0.73870000  1
  O  O23  1  0.87120000  0.70830000  0.89430000  1
  O  O24  1  0.43850000  0.73870000  0.34090000  1
  O  O25  1  0.63630000  0.79290000  0.48740000  1
  O  O26  1  0.62120000  0.89430000  0.29170000  1
  O  O27  1  0.43530000  0.93400000  0.44600000  1
  F  F28  1  0.87290000  0.08310000  0.90190000  1
  F  F29  1  0.57740000  0.08520000  0.09510000  1
  F  F30  1  0.32740000  0.09510000  0.91480000  1
  F  F31  1  0.12290000  0.09810000  0.08310000  1
  F  F32  1  0.39980000  0.38010000  0.44050000  1
  F  F33  1  0.95050000  0.40510000  0.43450000  1
  F  F34  1  0.70050000  0.43450000  0.59490000  1
  F  F35  1  0.14980000  0.44050000  0.61990000  1
  F  F36  1  0.64980000  0.55950000  0.38010000  1
  F  F37  1  0.20050000  0.56550000  0.40510000  1
  F  F38  1  0.45050000  0.59490000  0.56550000  1
  F  F39  1  0.89980000  0.61990000  0.55950000  1
  F  F40  1  0.62290000  0.90190000  0.91690000  1
  F  F41  1  0.82740000  0.90490000  0.08520000  1
  F  F42  1  0.07740000  0.91480000  0.90490000  1
  F  F43  1  0.37290000  0.91690000  0.09810000  1
