# generated using pymatgen
data_GdH6C21(NO3)6
_symmetry_space_group_name_H-M   'P 1'
_cell_length_a   14.58985992
_cell_length_b   14.58985992
_cell_length_c   26.05300000
_cell_angle_alpha   85.71796668
_cell_angle_beta   85.71796668
_cell_angle_gamma   60.71385888
_symmetry_Int_Tables_number   1
_chemical_formula_structural   GdH6C21(NO3)6
_chemical_formula_sum   'Gd4 H24 C84 N24 O72'
_cell_volume   4818.78905249
_cell_formula_units_Z   4
loop_
 _symmetry_equiv_pos_site_id
 _symmetry_equiv_pos_as_xyz
  1  'x, y, z'
loop_
 _atom_site_type_symbol
 _atom_site_label
 _atom_site_symmetry_multiplicity
 _atom_site_fract_x
 _atom_site_fract_y
 _atom_site_fract_z
 _atom_site_occupancy
  C  C0  1  0.26760000  0.76720000  0.31310000  1
  C  C1  1  0.76720000  0.26760000  0.81310000  1
  C  C2  1  0.32430000  0.71630000  0.26960000  1
  C  C3  1  0.71630000  0.32430000  0.76960000  1
  C  C4  1  0.30910000  0.79590000  0.35070000  1
  C  C5  1  0.79590000  0.30910000  0.85070000  1
  C  C6  1  0.42850000  0.69610000  0.26550000  1
  C  C7  1  0.69610000  0.42850000  0.76550000  1
  C  C8  1  0.41220000  0.77460000  0.34550000  1
  C  C9  1  0.77460000  0.41220000  0.84550000  1
  C  C10  1  0.47180000  0.72600000  0.30300000  1
  C  C11  1  0.72600000  0.47180000  0.80300000  1
  C  C12  1  0.45870000  0.80750000  0.38570000  1
  C  C13  1  0.80750000  0.45870000  0.88570000  1
  C  C14  1  0.19950000  0.11690000  0.56990000  1
  C  C15  1  0.11690000  0.19950000  0.06990000  1
  C  C16  1  0.24030000  0.08210000  0.13810000  1
  C  C17  1  0.08210000  0.24030000  0.63810000  1
  C  C18  1  0.28340000  0.06780000  0.18500000  1
  C  C19  1  0.06780000  0.28340000  0.68500000  1
  C  C20  1  0.18340000  0.16840000  0.62050000  1
  C  C21  1  0.16840000  0.18340000  0.12050000  1
  C  C22  1  0.25850000  0.10570000  0.31290000  1
  C  C23  1  0.10570000  0.25850000  0.81290000  1
  C  C24  1  0.29910000  0.08490000  0.36160000  1
  C  C25  1  0.08490000  0.29910000  0.86160000  1
  C  C26  1  0.26040000  0.14920000  0.21730000  1
  C  C27  1  0.14920000  0.26040000  0.71730000  1
  C  C28  1  0.26620000  0.14420000  0.65030000  1
  C  C29  1  0.14420000  0.26620000  0.15030000  1
  C  C30  1  0.30340000  0.13340000  0.26970000  1
  C  C31  1  0.13340000  0.30340000  0.76970000  1
  C  C32  1  0.24950000  0.18830000  0.69760000  1
  C  C33  1  0.18830000  0.24950000  0.19760000  1
  C  C34  1  0.56820000  0.87500000  0.67270000  1
  C  C35  1  0.87500000  0.56820000  0.17270000  1
  C  C36  1  0.60780000  0.85920000  0.72130000  1
  C  C37  1  0.85920000  0.60780000  0.22130000  1
  C  C38  1  0.38640000  0.09600000  0.36850000  1
  C  C39  1  0.09600000  0.38640000  0.86850000  1
  C  C40  1  0.56840000  0.92280000  0.57840000  1
  C  C41  1  0.92280000  0.56840000  0.07840000  1
  C  C42  1  0.43160000  0.07720000  0.42160000  1
  C  C43  1  0.07720000  0.43160000  0.92160000  1
  C  C44  1  0.61360000  0.90400000  0.63150000  1
  C  C45  1  0.90400000  0.61360000  0.13150000  1
  C  C46  1  0.39220000  0.14080000  0.27870000  1
  C  C47  1  0.14080000  0.39220000  0.77870000  1
  C  C48  1  0.43180000  0.12500000  0.32730000  1
  C  C49  1  0.12500000  0.43180000  0.82730000  1
  C  C50  1  0.75050000  0.81170000  0.30240000  1
  C  C51  1  0.81170000  0.75050000  0.80240000  1
  C  C52  1  0.69660000  0.86660000  0.73030000  1
  C  C53  1  0.86660000  0.69660000  0.23030000  1
  C  C54  1  0.73380000  0.85580000  0.34970000  1
  C  C55  1  0.85580000  0.73380000  0.84970000  1
  C  C56  1  0.73960000  0.85080000  0.78270000  1
  C  C57  1  0.85080000  0.73960000  0.28270000  1
  C  C58  1  0.70090000  0.91510000  0.63840000  1
  C  C59  1  0.91510000  0.70090000  0.13840000  1
  C  C60  1  0.74150000  0.89430000  0.68710000  1
  C  C61  1  0.89430000  0.74150000  0.18710000  1
  C  C62  1  0.81660000  0.83160000  0.37950000  1
  C  C63  1  0.83160000  0.81660000  0.87950000  1
  C  C64  1  0.71660000  0.93220000  0.81500000  1
  C  C65  1  0.93220000  0.71660000  0.31500000  1
  C  C66  1  0.75970000  0.91790000  0.86190000  1
  C  C67  1  0.91790000  0.75970000  0.36190000  1
  C  C68  1  0.80050000  0.88310000  0.43010000  1
  C  C69  1  0.88310000  0.80050000  0.93010000  1
  C  C70  1  0.54130000  0.19250000  0.61430000  1
  C  C71  1  0.19250000  0.54130000  0.11430000  1
  C  C72  1  0.52820000  0.27400000  0.69700000  1
  C  C73  1  0.27400000  0.52820000  0.19700000  1
  C  C74  1  0.58780000  0.22540000  0.65450000  1
  C  C75  1  0.22540000  0.58780000  0.15450000  1
  C  C76  1  0.57150000  0.30390000  0.73450000  1
  C  C77  1  0.30390000  0.57150000  0.23450000  1
  C  C78  1  0.69090000  0.20410000  0.64930000  1
  C  C79  1  0.20410000  0.69090000  0.14930000  1
  C  C80  1  0.67570000  0.28370000  0.73040000  1
  C  C81  1  0.28370000  0.67570000  0.23040000  1
  C  C82  1  0.73240000  0.23280000  0.68690000  1
  C  C83  1  0.23280000  0.73240000  0.18690000  1
  Gd  Gd84  1  0.39546000  0.90404000  0.50708000  1
  Gd  Gd85  1  0.90404000  0.39546000  0.00708000  1
  Gd  Gd86  1  0.60454000  0.09596000  0.49292000  1
  Gd  Gd87  1  0.09596000  0.60454000  0.99292000  1
  H  H88  1  0.26760000  0.82960000  0.37940000  1
  H  H89  1  0.82960000  0.26760000  0.87940000  1
  H  H90  1  0.54110000  0.71270000  0.29880000  1
  H  H91  1  0.71270000  0.54110000  0.79880000  1
  H  H92  1  0.25880000  0.02480000  0.11820000  1
  H  H93  1  0.02480000  0.25880000  0.61820000  1
  H  H94  1  0.26810000  0.06410000  0.38910000  1
  H  H95  1  0.06410000  0.26810000  0.88910000  1
  H  H96  1  0.51070000  0.86570000  0.66810000  1
  H  H97  1  0.86570000  0.51070000  0.16810000  1
  H  H98  1  0.33420000  0.09760000  0.63870000  1
  H  H99  1  0.09760000  0.33420000  0.13870000  1
  H  H100  1  0.66580000  0.90240000  0.36130000  1
  H  H101  1  0.90240000  0.66580000  0.86130000  1
  H  H102  1  0.48930000  0.13430000  0.33190000  1
  H  H103  1  0.13430000  0.48930000  0.83190000  1
  H  H104  1  0.73190000  0.93590000  0.61090000  1
  H  H105  1  0.93590000  0.73190000  0.11090000  1
  H  H106  1  0.74120000  0.97520000  0.88180000  1
  H  H107  1  0.97520000  0.74120000  0.38180000  1
  H  H108  1  0.45890000  0.28730000  0.70120000  1
  H  H109  1  0.28730000  0.45890000  0.20120000  1
  H  H110  1  0.73240000  0.17040000  0.62060000  1
  H  H111  1  0.17040000  0.73240000  0.12060000  1
  N  N112  1  0.20860000  0.84260000  0.17810000  1
  N  N113  1  0.84260000  0.20860000  0.67810000  1
  N  N114  1  0.49690000  0.64670000  0.22090000  1
  N  N115  1  0.64670000  0.49690000  0.72090000  1
  N  N116  1  0.16450000  0.09630000  0.30870000  1
  N  N117  1  0.09630000  0.16450000  0.80870000  1
  N  N118  1  0.36130000  0.95910000  0.19990000  1
  N  N119  1  0.95910000  0.36130000  0.69990000  1
  N  N120  1  0.54810000  0.83810000  0.76380000  1
  N  N121  1  0.83810000  0.54810000  0.26380000  1
  N  N122  1  0.33990000  0.15730000  0.72810000  1
  N  N123  1  0.15730000  0.33990000  0.22810000  1
  N  N124  1  0.66010000  0.84270000  0.27190000  1
  N  N125  1  0.84270000  0.66010000  0.77190000  1
  N  N126  1  0.45190000  0.16190000  0.23620000  1
  N  N127  1  0.16190000  0.45190000  0.73620000  1
  N  N128  1  0.63870000  0.04090000  0.80010000  1
  N  N129  1  0.04090000  0.63870000  0.30010000  1
  N  N130  1  0.83550000  0.90370000  0.69130000  1
  N  N131  1  0.90370000  0.83550000  0.19130000  1
  N  N132  1  0.50310000  0.35330000  0.77910000  1
  N  N133  1  0.35330000  0.50310000  0.27910000  1
  N  N134  1  0.79140000  0.15740000  0.82190000  1
  N  N135  1  0.15740000  0.79140000  0.32190000  1
  O  O136  1  0.19230000  0.87990000  0.13430000  1
  O  O137  1  0.87990000  0.19230000  0.63430000  1
  O  O138  1  0.20680000  0.89140000  0.21435000  1
  O  O139  1  0.89140000  0.20680000  0.71435000  1
  O  O140  1  0.45580000  0.65800000  0.18020000  1
  O  O141  1  0.65800000  0.45580000  0.68020000  1
  O  O142  1  0.15410000  0.03070000  0.33640000  1
  O  O143  1  0.03070000  0.15410000  0.83640000  1
  O  O144  1  0.58880000  0.60500000  0.22490000  1
  O  O145  1  0.60500000  0.58880000  0.72490000  1
  O  O146  1  0.40210000  0.83910000  0.42671000  1
  O  O147  1  0.83910000  0.40210000  0.92671000  1
  O  O148  1  0.12710000  0.11970000  0.05031000  1
  O  O149  1  0.11970000  0.12710000  0.55031000  1
  O  O150  1  0.15520000  0.09940000  0.77750000  1
  O  O151  1  0.09940000  0.15520000  0.27750000  1
  O  O152  1  0.40190000  0.89630000  0.16610000  1
  O  O153  1  0.48000000  0.81820000  0.75367000  1
  O  O154  1  0.81820000  0.48000000  0.25367000  1
  O  O155  1  0.89630000  0.40190000  0.66610000  1
  O  O156  1  0.37890000  0.93630000  0.24530000  1
  O  O157  1  0.93630000  0.37890000  0.74530000  1
  O  O158  1  0.54480000  0.80180000  0.37599000  1
  O  O159  1  0.80180000  0.54480000  0.87599000  1
  O  O160  1  0.29250000  0.06450000  0.55331000  1
  O  O161  1  0.06450000  0.29250000  0.05331000  1
  O  O162  1  0.49550000  0.90310000  0.57512000  1
  O  O163  1  0.90310000  0.49550000  0.07512000  1
  O  O164  1  0.56480000  0.84800000  0.80780000  1
  O  O165  1  0.84800000  0.56480000  0.30780000  1
  O  O166  1  0.65360000  0.77520000  0.24960000  1
  O  O167  1  0.77520000  0.65360000  0.74960000  1
  O  O168  1  0.39391000  0.04111000  0.45673000  1
  O  O169  1  0.04111000  0.39391000  0.95673000  1
  O  O170  1  0.40540000  0.06460000  0.72960000  1
  O  O171  1  0.06460000  0.40540000  0.22960000  1
  O  O172  1  0.59460000  0.93540000  0.27040000  1
  O  O173  1  0.93540000  0.59460000  0.77040000  1
  O  O174  1  0.60609000  0.95889000  0.54327000  1
  O  O175  1  0.95889000  0.60609000  0.04327000  1
  O  O176  1  0.34640000  0.22480000  0.75040000  1
  O  O177  1  0.22480000  0.34640000  0.25040000  1
  O  O178  1  0.43520000  0.15200000  0.19220000  1
  O  O179  1  0.15200000  0.43520000  0.69220000  1
  O  O180  1  0.50450000  0.09690000  0.42488000  1
  O  O181  1  0.09690000  0.50450000  0.92488000  1
  O  O182  1  0.70750000  0.93550000  0.44669000  1
  O  O183  1  0.93550000  0.70750000  0.94669000  1
  O  O184  1  0.45520000  0.19820000  0.62401000  1
  O  O185  1  0.19820000  0.45520000  0.12401000  1
  O  O186  1  0.62110000  0.06370000  0.75470000  1
  O  O187  1  0.06370000  0.62110000  0.25470000  1
  O  O188  1  0.52000000  0.18180000  0.24633000  1
  O  O189  1  0.59810000  0.10370000  0.83390000  1
  O  O190  1  0.10370000  0.59810000  0.33390000  1
  O  O191  1  0.18180000  0.52000000  0.74633000  1
  O  O192  1  0.84480000  0.90060000  0.22250000  1
  O  O193  1  0.90060000  0.84480000  0.72250000  1
  O  O194  1  0.87290000  0.88030000  0.94969000  1
  O  O195  1  0.88030000  0.87290000  0.44969000  1
  O  O196  1  0.59790000  0.16090000  0.57329000  1
  O  O197  1  0.16090000  0.59790000  0.07329000  1
  O  O198  1  0.41120000  0.39500000  0.77510000  1
  O  O199  1  0.39500000  0.41120000  0.27510000  1
  O  O200  1  0.84590000  0.96930000  0.66360000  1
  O  O201  1  0.96930000  0.84590000  0.16360000  1
  O  O202  1  0.54420000  0.34200000  0.81980000  1
  O  O203  1  0.34200000  0.54420000  0.31980000  1
  O  O204  1  0.79320000  0.10860000  0.78565000  1
  O  O205  1  0.10860000  0.79320000  0.28565000  1
  O  O206  1  0.80770000  0.12010000  0.86570000  1
  O  O207  1  0.12010000  0.80770000  0.36570000  1
