# generated using pymatgen
data_Zn3H8C14(NO)6
_symmetry_space_group_name_H-M   'P 1'
_cell_length_a   11.03390785
_cell_length_b   11.03390785
_cell_length_c   11.05500000
_cell_angle_alpha   87.44962568
_cell_angle_beta   87.44962568
_cell_angle_gamma   71.34578619
_symmetry_Int_Tables_number   1
_chemical_formula_structural   Zn3H8C14(NO)6
_chemical_formula_sum   'Zn6 H16 C28 N12 O12'
_cell_volume   1273.29391197
_cell_formula_units_Z   2
loop_
 _symmetry_equiv_pos_site_id
 _symmetry_equiv_pos_as_xyz
  1  'x, y, z'
loop_
 _atom_site_type_symbol
 _atom_site_label
 _atom_site_symmetry_multiplicity
 _atom_site_fract_x
 _atom_site_fract_y
 _atom_site_fract_z
 _atom_site_occupancy
  C  C0  1  0.40930000  0.86050000  0.82970000  1
  C  C1  1  0.86050000  0.40930000  0.32970000  1
  C  C2  1  0.59760000  0.77740000  0.32850000  1
  C  C3  1  0.77740000  0.59760000  0.82850000  1
  C  C4  1  0.57730000  0.80050000  0.20470000  1
  C  C5  1  0.80050000  0.57730000  0.70470000  1
  C  C6  1  0.40580000  0.99180000  0.77900000  1
  C  C7  1  0.99180000  0.40580000  0.27900000  1
  C  C8  1  0.38430000  0.01810000  0.65300000  1
  C  C9  1  0.01810000  0.38430000  0.15300000  1
  C  C10  1  0.61780000  0.86840000  0.40100000  1
  C  C11  1  0.86840000  0.61780000  0.90100000  1
  C  C12  1  0.57640000  0.91800000  0.14780000  1
  C  C13  1  0.91800000  0.57640000  0.64780000  1
  C  C14  1  0.42360000  0.08200000  0.85220000  1
  C  C15  1  0.08200000  0.42360000  0.35220000  1
  C  C16  1  0.38220000  0.13160000  0.59900000  1
  C  C17  1  0.13160000  0.38220000  0.09900000  1
  C  C18  1  0.61570000  0.98190000  0.34700000  1
  C  C19  1  0.98190000  0.61570000  0.84700000  1
  C  C20  1  0.59420000  0.00820000  0.22100000  1
  C  C21  1  0.00820000  0.59420000  0.72100000  1
  C  C22  1  0.42270000  0.19950000  0.79530000  1
  C  C23  1  0.19950000  0.42270000  0.29530000  1
  C  C24  1  0.40240000  0.22260000  0.67150000  1
  C  C25  1  0.22260000  0.40240000  0.17150000  1
  C  C26  1  0.59070000  0.13950000  0.17030000  1
  C  C27  1  0.13950000  0.59070000  0.67030000  1
  H  H28  1  0.39800000  0.67800000  0.53300000  1
  H  H29  1  0.67800000  0.39800000  0.03300000  1
  H  H30  1  0.37120000  0.95560000  0.60640000  1
  H  H31  1  0.95560000  0.37120000  0.10640000  1
  H  H32  1  0.63210000  0.85210000  0.48330000  1
  H  H33  1  0.85210000  0.63210000  0.98330000  1
  H  H34  1  0.56450000  0.93370000  0.06520000  1
  H  H35  1  0.93370000  0.56450000  0.56520000  1
  H  H36  1  0.43550000  0.06630000  0.93480000  1
  H  H37  1  0.06630000  0.43550000  0.43480000  1
  H  H38  1  0.36790000  0.14790000  0.51670000  1
  H  H39  1  0.14790000  0.36790000  0.01670000  1
  H  H40  1  0.62880000  0.04440000  0.39360000  1
  H  H41  1  0.04440000  0.62880000  0.89360000  1
  H  H42  1  0.60200000  0.32200000  0.46700000  1
  H  H43  1  0.32200000  0.60200000  0.96700000  1
  N  N44  1  0.57287000  0.60807000  0.25390000  1
  N  N45  1  0.60807000  0.57287000  0.75390000  1
  N  N46  1  0.59463000  0.65723000  0.35560000  1
  N  N47  1  0.65723000  0.59463000  0.85560000  1
  N  N48  1  0.56248000  0.69208000  0.16110000  1
  N  N49  1  0.69208000  0.56248000  0.66110000  1
  N  N50  1  0.43752000  0.30792000  0.83890000  1
  N  N51  1  0.30792000  0.43752000  0.33890000  1
  N  N52  1  0.40537000  0.34277000  0.64440000  1
  N  N53  1  0.34277000  0.40537000  0.14440000  1
  N  N54  1  0.42713000  0.39193000  0.74610000  1
  N  N55  1  0.39193000  0.42713000  0.24610000  1
  O  O56  1  0.43180000  0.60260000  0.56510000  1
  O  O57  1  0.60260000  0.43180000  0.06510000  1
  O  O58  1  0.36981000  0.79441000  0.76100000  1
  O  O59  1  0.79441000  0.36981000  0.26100000  1
  O  O60  1  0.45322000  0.82722000  0.93310000  1
  O  O61  1  0.82722000  0.45322000  0.43310000  1
  O  O62  1  0.54678000  0.17278000  0.06690000  1
  O  O63  1  0.17278000  0.54678000  0.56690000  1
  O  O64  1  0.63019000  0.20559000  0.23900000  1
  O  O65  1  0.20559000  0.63019000  0.73900000  1
  O  O66  1  0.56820000  0.39740000  0.43490000  1
  O  O67  1  0.39740000  0.56820000  0.93490000  1
  Zn  Zn68  1  0.39814000  0.60186000  0.75000000  1
  Zn  Zn69  1  0.60186000  0.39814000  0.25000000  1
  Zn  Zn70  1  0.52892000  0.63262000  0.99894000  1
  Zn  Zn71  1  0.63262000  0.52892000  0.49894000  1
  Zn  Zn72  1  0.47108000  0.36738000  0.00106000  1
  Zn  Zn73  1  0.36738000  0.47108000  0.50106000  1
