# generated using pymatgen
data_Th3H9C27O19
_symmetry_space_group_name_H-M   'P 1'
_cell_length_a   9.80840000
_cell_length_b   18.44480000
_cell_length_c   18.44480000
_cell_angle_alpha   120.00000000
_cell_angle_beta   90.00000000
_cell_angle_gamma   90.00000000
_symmetry_Int_Tables_number   1
_chemical_formula_structural   Th3H9C27O19
_chemical_formula_sum   'Th6 H18 C54 O38'
_cell_volume   2889.85931808
_cell_formula_units_Z   2
loop_
 _symmetry_equiv_pos_site_id
 _symmetry_equiv_pos_as_xyz
  1  'x, y, z'
loop_
 _atom_site_type_symbol
 _atom_site_label
 _atom_site_symmetry_multiplicity
 _atom_site_fract_x
 _atom_site_fract_y
 _atom_site_fract_z
 _atom_site_occupancy
  Th  Th0  1  0.25000000  0.79799000  0.35383000  1
  Th  Th1  1  0.25000000  0.64617000  0.44416000  1
  Th  Th2  1  0.25000000  0.55584000  0.20201000  1
  Th  Th3  1  0.75000000  0.44416000  0.79799000  1
  Th  Th4  1  0.75000000  0.35383000  0.55584000  1
  Th  Th5  1  0.75000000  0.20201000  0.64617000  1
  H  H6  1  0.95550000  0.91680000  0.51500000  1
  H  H7  1  0.54450000  0.91680000  0.51500000  1
  H  H8  1  0.75000000  0.75110000  0.29300000  1
  H  H9  1  0.75000000  0.70700000  0.45810000  1
  H  H10  1  0.95550000  0.59820000  0.08320000  1
  H  H11  1  0.54450000  0.59820000  0.08320000  1
  H  H12  1  0.75000000  0.54190000  0.24890000  1
  H  H13  1  0.45550000  0.51500000  0.59820000  1
  H  H14  1  0.04450000  0.51500000  0.59820000  1
  H  H15  1  0.95550000  0.48500000  0.40180000  1
  H  H16  1  0.54450000  0.48500000  0.40180000  1
  H  H17  1  0.25000000  0.45810000  0.75110000  1
  H  H18  1  0.45550000  0.40180000  0.91680000  1
  H  H19  1  0.04450000  0.40180000  0.91680000  1
  H  H20  1  0.25000000  0.29300000  0.54190000  1
  H  H21  1  0.25000000  0.24890000  0.70700000  1
  H  H22  1  0.45550000  0.08320000  0.48500000  1
  H  H23  1  0.04450000  0.08320000  0.48500000  1
  C  C24  1  0.25000000  0.97720000  0.44620000  1
  C  C25  1  0.75000000  0.93240000  0.52320000  1
  C  C26  1  0.87330000  0.88910000  0.50860000  1
  C  C27  1  0.62670000  0.88910000  0.50860000  1
  C  C28  1  0.87290000  0.80520000  0.48480000  1
  C  C29  1  0.62710000  0.80520000  0.48480000  1
  C  C30  1  0.75000000  0.76330000  0.47340000  1
  C  C31  1  0.49550000  0.75940000  0.47020000  1
  C  C32  1  0.00450000  0.75940000  0.47020000  1
  C  C33  1  0.49550000  0.71080000  0.24060000  1
  C  C34  1  0.00450000  0.71080000  0.24060000  1
  C  C35  1  0.75000000  0.71010000  0.23670000  1
  C  C36  1  0.87290000  0.67960000  0.19480000  1
  C  C37  1  0.62710000  0.67960000  0.19480000  1
  C  C38  1  0.87330000  0.61950000  0.11090000  1
  C  C39  1  0.62670000  0.61950000  0.11090000  1
  C  C40  1  0.75000000  0.59080000  0.06760000  1
  C  C41  1  0.25000000  0.55380000  0.53100000  1
  C  C42  1  0.75000000  0.53100000  0.97720000  1
  C  C43  1  0.49550000  0.52980000  0.28920000  1
  C  C44  1  0.00450000  0.52980000  0.28920000  1
  C  C45  1  0.75000000  0.52660000  0.28990000  1
  C  C46  1  0.25000000  0.52320000  0.59080000  1
  C  C47  1  0.87290000  0.51520000  0.32040000  1
  C  C48  1  0.62710000  0.51520000  0.32040000  1
  C  C49  1  0.37330000  0.50860000  0.61950000  1
  C  C50  1  0.12670000  0.50860000  0.61950000  1
  C  C51  1  0.87330000  0.49140000  0.38050000  1
  C  C52  1  0.62670000  0.49140000  0.38050000  1
  C  C53  1  0.37290000  0.48480000  0.67960000  1
  C  C54  1  0.12710000  0.48480000  0.67960000  1
  C  C55  1  0.75000000  0.47680000  0.40920000  1
  C  C56  1  0.25000000  0.47340000  0.71010000  1
  C  C57  1  0.99550000  0.47020000  0.71080000  1
  C  C58  1  0.50450000  0.47020000  0.71080000  1
  C  C59  1  0.25000000  0.46900000  0.02280000  1
  C  C60  1  0.75000000  0.44620000  0.46900000  1
  C  C61  1  0.25000000  0.40920000  0.93240000  1
  C  C62  1  0.37330000  0.38050000  0.88910000  1
  C  C63  1  0.12670000  0.38050000  0.88910000  1
  C  C64  1  0.37290000  0.32040000  0.80520000  1
  C  C65  1  0.12710000  0.32040000  0.80520000  1
  C  C66  1  0.25000000  0.28990000  0.76330000  1
  C  C67  1  0.99550000  0.28920000  0.75940000  1
  C  C68  1  0.50450000  0.28920000  0.75940000  1
  C  C69  1  0.99550000  0.24060000  0.52980000  1
  C  C70  1  0.50450000  0.24060000  0.52980000  1
  C  C71  1  0.25000000  0.23670000  0.52660000  1
  C  C72  1  0.37290000  0.19480000  0.51520000  1
  C  C73  1  0.12710000  0.19480000  0.51520000  1
  C  C74  1  0.37330000  0.11090000  0.49140000  1
  C  C75  1  0.12670000  0.11090000  0.49140000  1
  C  C76  1  0.25000000  0.06760000  0.47680000  1
  C  C77  1  0.75000000  0.02280000  0.55380000  1
  O  O78  1  0.36100000  0.93770000  0.43140000  1
  O  O79  1  0.13900000  0.93770000  0.43140000  1
  O  O80  1  0.38590000  0.79390000  0.46710000  1
  O  O81  1  0.11410000  0.79390000  0.46710000  1
  O  O82  1  0.49560000  0.77380000  0.31220000  1
  O  O83  1  0.00440000  0.77380000  0.31220000  1
  O  O84  1  0.49560000  0.68780000  0.46160000  1
  O  O85  1  0.00440000  0.68780000  0.46160000  1
  O  O86  1  0.38590000  0.67320000  0.20610000  1
  O  O87  1  0.11410000  0.67320000  0.20610000  1
  O  O88  1  0.25000000  0.66666667  0.33333333  1
  O  O89  1  0.36100000  0.56860000  0.50630000  1
  O  O90  1  0.13900000  0.56860000  0.50630000  1
  O  O91  1  0.49560000  0.53840000  0.22620000  1
  O  O92  1  0.00440000  0.53840000  0.22620000  1
  O  O93  1  0.38590000  0.53290000  0.32680000  1
  O  O94  1  0.11410000  0.53290000  0.32680000  1
  O  O95  1  0.86100000  0.50630000  0.93770000  1
  O  O96  1  0.63900000  0.50630000  0.93770000  1
  O  O97  1  0.36100000  0.49370000  0.06230000  1
  O  O98  1  0.13900000  0.49370000  0.06230000  1
  O  O99  1  0.88590000  0.46710000  0.67320000  1
  O  O100  1  0.61410000  0.46710000  0.67320000  1
  O  O101  1  0.99560000  0.46160000  0.77380000  1
  O  O102  1  0.50440000  0.46160000  0.77380000  1
  O  O103  1  0.86100000  0.43140000  0.49370000  1
  O  O104  1  0.63900000  0.43140000  0.49370000  1
  O  O105  1  0.75000000  0.33333333  0.66666667  1
  O  O106  1  0.88590000  0.32680000  0.79390000  1
  O  O107  1  0.61410000  0.32680000  0.79390000  1
  O  O108  1  0.99560000  0.31220000  0.53840000  1
  O  O109  1  0.50440000  0.31220000  0.53840000  1
  O  O110  1  0.99560000  0.22620000  0.68780000  1
  O  O111  1  0.50440000  0.22620000  0.68780000  1
  O  O112  1  0.88590000  0.20610000  0.53290000  1
  O  O113  1  0.61410000  0.20610000  0.53290000  1
  O  O114  1  0.86100000  0.06230000  0.56860000  1
  O  O115  1  0.63900000  0.06230000  0.56860000  1
