# generated using pymatgen
data_MnCu2Mo6H20C18I2(NO6)2
_symmetry_space_group_name_H-M   'P 1'
_cell_length_a   14.25760000
_cell_length_b   37.68980000
_cell_length_c   37.68980000
_cell_angle_alpha   90.00000000
_cell_angle_beta   90.00000000
_cell_angle_gamma   90.00000000
_symmetry_Int_Tables_number   1
_chemical_formula_structural   MnCu2Mo6H20C18I2(NO6)2
_chemical_formula_sum   'Mn8 Cu16 Mo48 H160 C144 I16 N16 O96'
_cell_volume   20253.22055235
_cell_formula_units_Z   8
loop_
 _symmetry_equiv_pos_site_id
 _symmetry_equiv_pos_as_xyz
  1  'x, y, z'
loop_
 _atom_site_type_symbol
 _atom_site_label
 _atom_site_symmetry_multiplicity
 _atom_site_fract_x
 _atom_site_fract_y
 _atom_site_fract_z
 _atom_site_occupancy
  Mn  Mn0  1  0.64682000  0.00104000  0.75107000  1
  Mn  Mn1  1  0.85318000  0.24893000  0.99896000  1
  Mn  Mn2  1  0.89682000  0.25107000  0.49896000  1
  Mn  Mn3  1  0.10318000  0.49896000  0.25107000  1
  Mn  Mn4  1  0.60318000  0.50104000  0.74893000  1
  Mn  Mn5  1  0.39682000  0.74893000  0.50104000  1
  Mn  Mn6  1  0.35318000  0.75107000  0.00104000  1
  Mn  Mn7  1  0.14682000  0.99896000  0.24893000  1
  Cu  Cu8  1  0.45576000  0.21598000  0.25892000  1
  Cu  Cu9  1  0.32992000  0.21656000  0.75819000  1
  Cu  Cu10  1  0.20576000  0.24108000  0.71598000  1
  Cu  Cu11  1  0.17008000  0.24181000  0.78344000  1
  Cu  Cu12  1  0.57992000  0.25819000  0.28344000  1
  Cu  Cu13  1  0.54424000  0.25892000  0.21598000  1
  Cu  Cu14  1  0.42008000  0.28344000  0.25819000  1
  Cu  Cu15  1  0.29424000  0.28402000  0.75892000  1
  Cu  Cu16  1  0.79424000  0.71598000  0.24108000  1
  Cu  Cu17  1  0.92008000  0.71656000  0.74181000  1
  Cu  Cu18  1  0.04424000  0.74108000  0.78402000  1
  Cu  Cu19  1  0.07992000  0.74181000  0.71656000  1
  Cu  Cu20  1  0.67008000  0.75819000  0.21656000  1
  Cu  Cu21  1  0.70576000  0.75892000  0.28402000  1
  Cu  Cu22  1  0.82992000  0.78344000  0.24181000  1
  Cu  Cu23  1  0.95576000  0.78402000  0.74108000  1
  Mo  Mo24  1  0.16540000  0.00429000  0.16039000  1
  Mo  Mo25  1  0.62866000  0.00622000  0.66257000  1
  Mo  Mo26  1  0.95836000  0.03282000  0.29052000  1
  Mo  Mo27  1  0.83693000  0.03386000  0.79225000  1
  Mo  Mo28  1  0.97513000  0.03706000  0.20219000  1
  Mo  Mo29  1  0.81769000  0.03959000  0.70374000  1
  Mo  Mo30  1  0.83460000  0.16039000  0.00429000  1
  Mo  Mo31  1  0.87866000  0.16257000  0.49378000  1
  Mo  Mo32  1  0.02487000  0.20219000  0.03706000  1
  Mo  Mo33  1  0.06769000  0.20374000  0.46041000  1
  Mo  Mo34  1  0.66307000  0.20775000  0.96614000  1
  Mo  Mo35  1  0.70836000  0.20948000  0.53282000  1
  Mo  Mo36  1  0.04164000  0.29052000  0.03282000  1
  Mo  Mo37  1  0.08693000  0.29225000  0.46614000  1
  Mo  Mo38  1  0.68231000  0.29626000  0.96041000  1
  Mo  Mo39  1  0.72513000  0.29781000  0.53706000  1
  Mo  Mo40  1  0.87134000  0.33743000  0.99378000  1
  Mo  Mo41  1  0.91540000  0.33961000  0.50429000  1
  Mo  Mo42  1  0.93231000  0.46041000  0.20374000  1
  Mo  Mo43  1  0.77487000  0.46294000  0.70219000  1
  Mo  Mo44  1  0.91307000  0.46614000  0.29225000  1
  Mo  Mo45  1  0.79164000  0.46718000  0.79052000  1
  Mo  Mo46  1  0.12134000  0.49378000  0.16257000  1
  Mo  Mo47  1  0.58460000  0.49571000  0.66039000  1
  Mo  Mo48  1  0.08460000  0.50429000  0.33961000  1
  Mo  Mo49  1  0.62134000  0.50622000  0.83743000  1
  Mo  Mo50  1  0.29164000  0.53282000  0.20948000  1
  Mo  Mo51  1  0.41307000  0.53386000  0.70775000  1
  Mo  Mo52  1  0.27487000  0.53706000  0.29781000  1
  Mo  Mo53  1  0.43231000  0.53959000  0.79626000  1
  Mo  Mo54  1  0.41540000  0.66039000  0.49571000  1
  Mo  Mo55  1  0.37134000  0.66257000  0.00622000  1
  Mo  Mo56  1  0.22513000  0.70219000  0.46294000  1
  Mo  Mo57  1  0.18231000  0.70374000  0.03959000  1
  Mo  Mo58  1  0.58693000  0.70775000  0.53386000  1
  Mo  Mo59  1  0.54164000  0.70948000  0.96718000  1
  Mo  Mo60  1  0.20836000  0.79052000  0.46718000  1
  Mo  Mo61  1  0.16307000  0.79225000  0.03386000  1
  Mo  Mo62  1  0.56769000  0.79626000  0.53959000  1
  Mo  Mo63  1  0.52487000  0.79781000  0.96294000  1
  Mo  Mo64  1  0.37866000  0.83743000  0.50622000  1
  Mo  Mo65  1  0.33460000  0.83961000  0.99571000  1
  Mo  Mo66  1  0.31769000  0.96041000  0.29626000  1
  Mo  Mo67  1  0.47513000  0.96294000  0.79781000  1
  Mo  Mo68  1  0.33693000  0.96614000  0.20775000  1
  Mo  Mo69  1  0.45836000  0.96718000  0.70948000  1
  Mo  Mo70  1  0.12866000  0.99378000  0.33743000  1
  Mo  Mo71  1  0.66540000  0.99571000  0.83961000  1
  H  H72  1  0.34020000  0.04380000  0.28950000  1
  H  H73  1  0.45410000  0.04480000  0.78850000  1
  H  H74  1  0.35080000  0.04930000  0.22290000  1
  H  H75  1  0.44220000  0.05150000  0.72520000  1
  H  H76  1  0.25170000  0.06020000  0.30990000  1
  H  H77  1  0.53800000  0.06240000  0.81030000  1
  H  H78  1  0.26820000  0.06720000  0.20050000  1
  H  H79  1  0.52490000  0.06930000  0.70290000  1
  H  H80  1  0.42900000  0.08490000  0.26330000  1
  H  H81  1  0.12050000  0.08810000  0.27590000  1
  H  H82  1  0.67480000  0.08910000  0.77830000  1
  H  H83  1  0.12430000  0.09180000  0.23360000  1
  H  H84  1  0.67030000  0.09400000  0.73620000  1
  H  H85  1  0.41930000  0.09790000  0.80180000  1
  H  H86  1  0.57460000  0.12920000  0.71910000  1
  H  H87  1  0.18400000  0.13700000  0.25720000  1
  H  H88  1  0.50600000  0.13730000  0.26630000  1
  H  H89  1  0.35320000  0.15400000  0.80390000  1
  H  H90  1  0.49180000  0.18240000  0.71830000  1
  H  H91  1  0.26920000  0.18890000  0.25980000  1
  H  H92  1  0.96200000  0.18970000  0.93760000  1
  H  H93  1  0.00170000  0.19010000  0.56020000  1
  H  H94  1  0.14680000  0.19610000  0.84600000  1
  H  H95  1  0.08070000  0.19820000  0.90210000  1
  H  H96  1  0.73180000  0.20050000  0.06720000  1
  H  H97  1  0.77490000  0.20290000  0.43070000  1
  H  H98  1  0.09020000  0.21050000  0.54380000  1
  H  H99  1  0.04590000  0.21150000  0.95520000  1
  H  H100  1  0.74180000  0.21830000  0.31760000  1
  H  H101  1  0.82460000  0.21910000  0.37080000  1
  H  H102  1  0.82520000  0.22170000  0.91090000  1
  H  H103  1  0.64920000  0.22290000  0.04930000  1
  H  H104  1  0.87050000  0.22410000  0.58810000  1
  H  H105  1  0.69220000  0.22520000  0.44850000  1
  H  H106  1  0.87570000  0.23360000  0.09180000  1
  H  H107  1  0.25600000  0.23370000  0.63730000  1
  H  H108  1  0.92030000  0.23620000  0.40600000  1
  H  H109  1  0.17900000  0.23670000  0.58490000  1
  H  H110  1  0.01920000  0.24020000  0.68890000  1
  H  H111  1  0.93400000  0.24280000  0.63700000  1
  H  H112  1  0.81600000  0.25720000  0.13700000  1
  H  H113  1  0.73080000  0.25980000  0.18890000  1
  H  H114  1  0.57100000  0.26330000  0.08490000  1
  H  H115  1  0.82970000  0.26380000  0.90600000  1
  H  H116  1  0.49400000  0.26630000  0.13730000  1
  H  H117  1  0.87430000  0.26640000  0.59180000  1
  H  H118  1  0.05780000  0.27480000  0.94850000  1
  H  H119  1  0.87950000  0.27590000  0.08810000  1
  H  H120  1  0.10080000  0.27710000  0.54930000  1
  H  H121  1  0.92480000  0.27830000  0.41090000  1
  H  H122  1  0.92540000  0.28090000  0.87080000  1
  H  H123  1  0.00820000  0.28170000  0.81760000  1
  H  H124  1  0.70410000  0.28850000  0.45520000  1
  H  H125  1  0.65980000  0.28950000  0.04380000  1
  H  H126  1  0.97510000  0.29710000  0.93070000  1
  H  H127  1  0.01820000  0.29950000  0.56720000  1
  H  H128  1  0.66930000  0.30180000  0.40210000  1
  H  H129  1  0.60320000  0.30390000  0.34600000  1
  H  H130  1  0.74830000  0.30990000  0.06020000  1
  H  H131  1  0.78800000  0.31030000  0.43760000  1
  H  H132  1  0.48080000  0.31110000  0.75980000  1
  H  H133  1  0.25820000  0.31760000  0.21830000  1
  H  H134  1  0.39680000  0.34600000  0.30390000  1
  H  H135  1  0.24400000  0.36270000  0.76630000  1
  H  H136  1  0.56600000  0.36300000  0.75720000  1
  H  H137  1  0.17540000  0.37080000  0.21910000  1
  H  H138  1  0.33070000  0.40210000  0.30180000  1
  H  H139  1  0.07970000  0.40600000  0.23620000  1
  H  H140  1  0.62570000  0.40820000  0.73360000  1
  H  H141  1  0.07520000  0.41090000  0.27830000  1
  H  H142  1  0.62950000  0.41190000  0.77590000  1
  H  H143  1  0.32100000  0.41510000  0.76330000  1
  H  H144  1  0.22510000  0.43070000  0.20290000  1
  H  H145  1  0.48180000  0.43280000  0.70050000  1
  H  H146  1  0.21200000  0.43760000  0.31030000  1
  H  H147  1  0.49830000  0.43980000  0.80990000  1
  H  H148  1  0.30780000  0.44850000  0.22520000  1
  H  H149  1  0.39920000  0.45070000  0.72290000  1
  H  H150  1  0.29590000  0.45520000  0.28850000  1
  H  H151  1  0.40980000  0.45620000  0.78950000  1
  H  H152  1  0.90980000  0.54380000  0.21050000  1
  H  H153  1  0.79590000  0.54480000  0.71150000  1
  H  H154  1  0.89920000  0.54930000  0.27710000  1
  H  H155  1  0.80780000  0.55150000  0.77480000  1
  H  H156  1  0.99830000  0.56020000  0.19010000  1
  H  H157  1  0.71200000  0.56240000  0.68970000  1
  H  H158  1  0.98180000  0.56720000  0.29950000  1
  H  H159  1  0.72510000  0.56930000  0.79710000  1
  H  H160  1  0.82100000  0.58490000  0.23670000  1
  H  H161  1  0.12950000  0.58810000  0.22410000  1
  H  H162  1  0.57520000  0.58910000  0.72170000  1
  H  H163  1  0.12570000  0.59180000  0.26640000  1
  H  H164  1  0.57970000  0.59400000  0.76380000  1
  H  H165  1  0.83070000  0.59790000  0.69820000  1
  H  H166  1  0.67540000  0.62920000  0.78090000  1
  H  H167  1  0.06600000  0.63700000  0.24280000  1
  H  H168  1  0.74400000  0.63730000  0.23370000  1
  H  H169  1  0.89680000  0.65400000  0.69610000  1
  H  H170  1  0.75820000  0.68240000  0.78170000  1
  H  H171  1  0.98080000  0.68890000  0.24020000  1
  H  H172  1  0.28800000  0.68970000  0.56240000  1
  H  H173  1  0.24830000  0.69010000  0.93980000  1
  H  H174  1  0.10320000  0.69610000  0.65400000  1
  H  H175  1  0.16930000  0.69820000  0.59790000  1
  H  H176  1  0.51820000  0.70050000  0.43280000  1
  H  H177  1  0.47510000  0.70290000  0.06930000  1
  H  H178  1  0.15980000  0.71050000  0.95620000  1
  H  H179  1  0.20410000  0.71150000  0.54480000  1
  H  H180  1  0.50820000  0.71830000  0.18240000  1
  H  H181  1  0.42540000  0.71910000  0.12920000  1
  H  H182  1  0.42480000  0.72170000  0.58910000  1
  H  H183  1  0.60080000  0.72290000  0.45070000  1
  H  H184  1  0.37950000  0.72410000  0.91190000  1
  H  H185  1  0.55780000  0.72520000  0.05150000  1
  H  H186  1  0.37430000  0.73360000  0.40820000  1
  H  H187  1  0.99400000  0.73370000  0.86270000  1
  H  H188  1  0.32970000  0.73620000  0.09400000  1
  H  H189  1  0.07100000  0.73670000  0.91510000  1
  H  H190  1  0.23080000  0.74020000  0.81110000  1
  H  H191  1  0.31600000  0.74280000  0.86300000  1
  H  H192  1  0.43400000  0.75720000  0.36300000  1
  H  H193  1  0.51920000  0.75980000  0.31110000  1
  H  H194  1  0.67900000  0.76330000  0.41510000  1
  H  H195  1  0.42030000  0.76380000  0.59400000  1
  H  H196  1  0.75600000  0.76630000  0.36270000  1
  H  H197  1  0.37570000  0.76640000  0.90820000  1
  H  H198  1  0.19220000  0.77480000  0.55150000  1
  H  H199  1  0.37050000  0.77590000  0.41190000  1
  H  H200  1  0.14920000  0.77710000  0.95070000  1
  H  H201  1  0.32520000  0.77830000  0.08910000  1
  H  H202  1  0.32460000  0.78090000  0.62920000  1
  H  H203  1  0.24180000  0.78170000  0.68240000  1
  H  H204  1  0.54590000  0.78850000  0.04480000  1
  H  H205  1  0.59020000  0.78950000  0.45620000  1
  H  H206  1  0.27490000  0.79710000  0.56930000  1
  H  H207  1  0.23180000  0.79950000  0.93280000  1
  H  H208  1  0.58070000  0.80180000  0.09790000  1
  H  H209  1  0.64680000  0.80390000  0.15400000  1
  H  H210  1  0.50170000  0.80990000  0.43980000  1
  H  H211  1  0.46200000  0.81030000  0.06240000  1
  H  H212  1  0.76920000  0.81110000  0.74020000  1
  H  H213  1  0.99180000  0.81760000  0.28170000  1
  H  H214  1  0.85320000  0.84600000  0.19610000  1
  H  H215  1  0.00600000  0.86270000  0.73370000  1
  H  H216  1  0.68400000  0.86300000  0.74280000  1
  H  H217  1  0.07460000  0.87080000  0.28090000  1
  H  H218  1  0.91930000  0.90210000  0.19820000  1
  H  H219  1  0.17030000  0.90600000  0.26380000  1
  H  H220  1  0.62430000  0.90820000  0.76640000  1
  H  H221  1  0.17480000  0.91090000  0.22170000  1
  H  H222  1  0.62050000  0.91190000  0.72410000  1
  H  H223  1  0.92900000  0.91510000  0.73670000  1
  H  H224  1  0.02490000  0.93070000  0.29710000  1
  H  H225  1  0.76820000  0.93280000  0.79950000  1
  H  H226  1  0.03800000  0.93760000  0.18970000  1
  H  H227  1  0.75170000  0.93980000  0.69010000  1
  H  H228  1  0.94220000  0.94850000  0.27480000  1
  H  H229  1  0.85080000  0.95070000  0.77710000  1
  H  H230  1  0.95410000  0.95520000  0.21150000  1
  H  H231  1  0.84020000  0.95620000  0.71050000  1
  C  C232  1  0.27120000  0.04670000  0.28860000  1
  C  C233  1  0.52290000  0.04840000  0.78880000  1
  C  C234  1  0.28180000  0.05120000  0.22080000  1
  C  C235  1  0.51120000  0.05340000  0.72310000  1
  C  C236  1  0.24370000  0.06810000  0.25440000  1
  C  C237  1  0.54870000  0.07050000  0.75670000  1
  C  C238  1  0.13820000  0.07570000  0.25370000  1
  C  C239  1  0.65640000  0.07739000  0.75590000  1
  C  C240  1  0.29370000  0.10370000  0.25920000  1
  C  C241  1  0.39360000  0.10630000  0.26240000  1
  C  C242  1  0.50260000  0.10680000  0.75890000  1
  C  C243  1  0.43620000  0.11510000  0.78450000  1
  C  C244  1  0.52530000  0.13290000  0.73560000  1
  C  C245  1  0.25050000  0.13580000  0.25870000  1
  C  C246  1  0.43960000  0.13720000  0.26410000  1
  C  C247  1  0.39440000  0.14820000  0.78490000  1
  C  C248  1  0.47680000  0.16510000  0.73570000  1
  C  C249  1  0.30290000  0.16720000  0.26050000  1
  C  C250  1  0.97710000  0.21120000  0.95160000  1
  C  C251  1  0.02120000  0.21140000  0.54670000  1
  C  C252  1  0.10560000  0.21510000  0.85180000  1
  C  C253  1  0.06380000  0.21550000  0.88490000  1
  C  C254  1  0.71820000  0.22080000  0.05120000  1
  C  C255  1  0.76120000  0.22310000  0.44660000  1
  C  C256  1  0.77530000  0.23560000  0.36710000  1
  C  C257  1  0.72680000  0.23570000  0.33490000  1
  C  C258  1  0.18960000  0.23590000  0.63720000  1
  C  C259  1  0.14360000  0.23760000  0.60630000  1
  C  C260  1  0.05290000  0.23950000  0.66720000  1
  C  C261  1  0.04370000  0.24080000  0.60370000  1
  C  C262  1  0.99740000  0.24110000  0.89320000  1
  C  C263  1  0.00050000  0.24130000  0.63580000  1
  C  C264  1  0.95130000  0.24330000  0.92950000  1
  C  C265  1  0.84360000  0.24410000  0.92261000  1
  C  C266  1  0.99370000  0.24560000  0.56810000  1
  C  C267  1  0.88820000  0.24630000  0.57570000  1
  C  C268  1  0.86180000  0.25370000  0.07570000  1
  C  C269  1  0.75630000  0.25440000  0.06810000  1
  C  C270  1  0.90640000  0.25590000  0.42261000  1
  C  C271  1  0.79870000  0.25670000  0.42950000  1
  C  C272  1  0.74950000  0.25870000  0.13580000  1
  C  C273  1  0.75260000  0.25890000  0.39320000  1
  C  C274  1  0.70630000  0.25920000  0.10370000  1
  C  C275  1  0.69710000  0.26050000  0.16720000  1
  C  C276  1  0.60640000  0.26240000  0.10630000  1
  C  C277  1  0.56040000  0.26410000  0.13720000  1
  C  C278  1  0.02320000  0.26430000  0.83490000  1
  C  C279  1  0.97470000  0.26440000  0.86710000  1
  C  C280  1  0.98880000  0.27690000  0.94660000  1
  C  C281  1  0.03180000  0.27920000  0.55120000  1
  C  C282  1  0.68620000  0.28450000  0.38490000  1
  C  C283  1  0.64440000  0.28490000  0.35180000  1
  C  C284  1  0.72880000  0.28860000  0.04670000  1
  C  C285  1  0.77290000  0.28880000  0.45160000  1
  C  C286  1  0.44710000  0.33280000  0.76050000  1
  C  C287  1  0.27320000  0.33490000  0.23570000  1
  C  C288  1  0.35560000  0.35180000  0.28490000  1
  C  C289  1  0.31040000  0.36280000  0.76410000  1
  C  C290  1  0.49950000  0.36420000  0.75870000  1
  C  C291  1  0.22470000  0.36710000  0.23560000  1
  C  C292  1  0.31380000  0.38490000  0.28450000  1
  C  C293  1  0.24740000  0.39320000  0.25890000  1
  C  C294  1  0.35640000  0.39370000  0.76240000  1
  C  C295  1  0.45630000  0.39630000  0.75920000  1
  C  C296  1  0.09360000  0.42261000  0.25590000  1
  C  C297  1  0.61180000  0.42430000  0.75370000  1
  C  C298  1  0.20130000  0.42950000  0.25670000  1
  C  C299  1  0.50630000  0.43190000  0.75440000  1
  C  C300  1  0.23880000  0.44660000  0.22310000  1
  C  C301  1  0.46820000  0.44880000  0.72080000  1
  C  C302  1  0.22710000  0.45160000  0.28880000  1
  C  C303  1  0.47880000  0.45330000  0.78860000  1
  C  C304  1  0.97880000  0.54670000  0.21140000  1
  C  C305  1  0.72710000  0.54840000  0.71120000  1
  C  C306  1  0.96820000  0.55120000  0.27920000  1
  C  C307  1  0.73880000  0.55340000  0.77690000  1
  C  C308  1  0.00630000  0.56810000  0.24560000  1
  C  C309  1  0.70130000  0.57050000  0.74330000  1
  C  C310  1  0.11180000  0.57570000  0.24630000  1
  C  C311  1  0.59360000  0.57739000  0.74410000  1
  C  C312  1  0.95630000  0.60370000  0.24080000  1
  C  C313  1  0.85640000  0.60630000  0.23760000  1
  C  C314  1  0.74740000  0.60680000  0.74110000  1
  C  C315  1  0.81380000  0.61510000  0.71550000  1
  C  C316  1  0.72470000  0.63290000  0.76440000  1
  C  C317  1  0.99950000  0.63580000  0.24130000  1
  C  C318  1  0.81040000  0.63720000  0.23590000  1
  C  C319  1  0.85560000  0.64820000  0.71510000  1
  C  C320  1  0.77320000  0.66510000  0.76430000  1
  C  C321  1  0.94710000  0.66720000  0.23950000  1
  C  C322  1  0.27290000  0.71120000  0.54840000  1
  C  C323  1  0.22880000  0.71140000  0.95330000  1
  C  C324  1  0.14440000  0.71510000  0.64820000  1
  C  C325  1  0.18620000  0.71550000  0.61510000  1
  C  C326  1  0.53180000  0.72080000  0.44880000  1
  C  C327  1  0.48880000  0.72310000  0.05340000  1
  C  C328  1  0.47470000  0.73560000  0.13290000  1
  C  C329  1  0.52320000  0.73570000  0.16510000  1
  C  C330  1  0.06040000  0.73590000  0.86280000  1
  C  C331  1  0.10640000  0.73760000  0.89370000  1
  C  C332  1  0.19710000  0.73950000  0.83280000  1
  C  C333  1  0.20630000  0.74080000  0.89630000  1
  C  C334  1  0.25260000  0.74110000  0.60680000  1
  C  C335  1  0.24950000  0.74130000  0.86420000  1
  C  C336  1  0.29870000  0.74330000  0.57050000  1
  C  C337  1  0.40640000  0.74410000  0.57739000  1
  C  C338  1  0.25630000  0.74560000  0.93190000  1
  C  C339  1  0.36180000  0.74630000  0.92430000  1
  C  C340  1  0.38820000  0.75370000  0.42430000  1
  C  C341  1  0.49370000  0.75440000  0.43190000  1
  C  C342  1  0.34360000  0.75590000  0.07739000  1
  C  C343  1  0.45130000  0.75670000  0.07050000  1
  C  C344  1  0.50050000  0.75870000  0.36420000  1
  C  C345  1  0.49740000  0.75890000  0.10680000  1
  C  C346  1  0.54370000  0.75920000  0.39630000  1
  C  C347  1  0.55290000  0.76050000  0.33280000  1
  C  C348  1  0.64360000  0.76240000  0.39370000  1
  C  C349  1  0.68960000  0.76410000  0.36280000  1
  C  C350  1  0.22680000  0.76430000  0.66510000  1
  C  C351  1  0.27530000  0.76440000  0.63290000  1
  C  C352  1  0.26120000  0.77690000  0.55340000  1
  C  C353  1  0.21820000  0.77920000  0.94880000  1
  C  C354  1  0.56380000  0.78450000  0.11510000  1
  C  C355  1  0.60560000  0.78490000  0.14820000  1
  C  C356  1  0.52120000  0.78860000  0.45330000  1
  C  C357  1  0.47710000  0.78880000  0.04840000  1
  C  C358  1  0.80290000  0.83280000  0.73950000  1
  C  C359  1  0.97680000  0.83490000  0.26430000  1
  C  C360  1  0.89440000  0.85180000  0.21510000  1
  C  C361  1  0.93960000  0.86280000  0.73590000  1
  C  C362  1  0.75050000  0.86420000  0.74130000  1
  C  C363  1  0.02530000  0.86710000  0.26440000  1
  C  C364  1  0.93620000  0.88490000  0.21550000  1
  C  C365  1  0.00260000  0.89320000  0.24110000  1
  C  C366  1  0.89360000  0.89370000  0.73760000  1
  C  C367  1  0.79370000  0.89630000  0.74080000  1
  C  C368  1  0.15640000  0.92261000  0.24410000  1
  C  C369  1  0.63820000  0.92430000  0.74630000  1
  C  C370  1  0.04870000  0.92950000  0.24330000  1
  C  C371  1  0.74370000  0.93190000  0.74560000  1
  C  C372  1  0.01120000  0.94660000  0.27690000  1
  C  C373  1  0.78180000  0.94880000  0.77920000  1
  C  C374  1  0.02290000  0.95160000  0.21120000  1
  C  C375  1  0.77120000  0.95330000  0.71140000  1
  I  I376  1  0.15746000  0.18093000  0.74984000  1
  I  I377  1  0.63481000  0.20145000  0.24662000  1
  I  I378  1  0.36519000  0.24662000  0.20145000  1
  I  I379  1  0.40746000  0.24984000  0.31907000  1
  I  I380  1  0.34254000  0.25016000  0.81907000  1
  I  I381  1  0.38481000  0.25338000  0.70145000  1
  I  I382  1  0.11519000  0.29855000  0.74662000  1
  I  I383  1  0.59254000  0.31907000  0.24984000  1
  I  I384  1  0.09254000  0.68093000  0.75016000  1
  I  I385  1  0.61519000  0.70145000  0.25338000  1
  I  I386  1  0.88481000  0.74662000  0.29855000  1
  I  I387  1  0.84254000  0.74984000  0.18093000  1
  I  I388  1  0.90746000  0.75016000  0.68093000  1
  I  I389  1  0.86519000  0.75338000  0.79855000  1
  I  I390  1  0.13481000  0.79855000  0.75338000  1
  I  I391  1  0.65746000  0.81907000  0.25016000  1
  N  N392  1  0.39140000  0.16910000  0.26290000  1
  N  N393  1  0.40980000  0.17240000  0.75960000  1
  N  N394  1  0.14140000  0.23710000  0.66910000  1
  N  N395  1  0.09020000  0.24040000  0.82760000  1
  N  N396  1  0.65980000  0.25960000  0.32760000  1
  N  N397  1  0.60860000  0.26290000  0.16910000  1
  N  N398  1  0.34020000  0.32760000  0.25960000  1
  N  N399  1  0.35860000  0.33090000  0.76290000  1
  N  N400  1  0.85860000  0.66910000  0.23710000  1
  N  N401  1  0.84020000  0.67240000  0.74040000  1
  N  N402  1  0.10860000  0.73710000  0.83090000  1
  N  N403  1  0.15980000  0.74040000  0.67240000  1
  N  N404  1  0.59020000  0.75960000  0.17240000  1
  N  N405  1  0.64140000  0.76290000  0.33090000  1
  N  N406  1  0.90980000  0.82760000  0.24040000  1
  N  N407  1  0.89140000  0.83090000  0.73710000  1
  O  O408  1  0.22710000  0.01194000  0.28914000  1
  O  O409  1  0.56690000  0.01426000  0.79210000  1
  O  O410  1  0.24450000  0.01632000  0.21268000  1
  O  O411  1  0.92030000  0.01827000  0.24430000  1
  O  O412  1  0.54920000  0.01839000  0.71531000  1
  O  O413  1  0.87430000  0.01941000  0.74474000  1
  O  O414  1  0.06250000  0.03527000  0.32281000  1
  O  O415  1  0.73260000  0.03723000  0.82499000  1
  O  O416  1  0.09200000  0.04315000  0.17622000  1
  O  O417  1  0.08080000  0.04360000  0.25013000  1
  O  O418  1  0.71260000  0.04629000  0.75137000  1
  O  O419  1  0.70130000  0.04643000  0.67716000  1
  O  O420  1  0.76740000  0.17501000  0.96277000  1
  O  O421  1  0.90800000  0.17622000  0.04315000  1
  O  O422  1  0.95130000  0.17716000  0.45357000  1
  O  O423  1  0.81250000  0.17719000  0.53527000  1
  O  O424  1  0.93310000  0.20790000  0.98574000  1
  O  O425  1  0.97710000  0.21086000  0.51194000  1
  O  O426  1  0.75550000  0.21268000  0.01632000  1
  O  O427  1  0.79920000  0.21531000  0.48161000  1
  O  O428  1  0.07970000  0.24430000  0.01827000  1
  O  O429  1  0.12430000  0.24474000  0.48059000  1
  O  O430  1  0.78740000  0.24863000  0.95371000  1
  O  O431  1  0.83080000  0.24987000  0.54360000  1
  O  O432  1  0.91920000  0.25013000  0.04360000  1
  O  O433  1  0.96260000  0.25137000  0.45371000  1
  O  O434  1  0.62570000  0.25526000  0.98059000  1
  O  O435  1  0.67030000  0.25570000  0.51827000  1
  O  O436  1  0.95080000  0.28469000  0.98161000  1
  O  O437  1  0.99450000  0.28732000  0.51632000  1
  O  O438  1  0.77290000  0.28914000  0.01194000  1
  O  O439  1  0.81690000  0.29210000  0.48574000  1
  O  O440  1  0.93750000  0.32281000  0.03527000  1
  O  O441  1  0.79870000  0.32284000  0.95357000  1
  O  O442  1  0.84200000  0.32378000  0.54315000  1
  O  O443  1  0.98260000  0.32499000  0.46277000  1
  O  O444  1  0.04870000  0.45357000  0.17716000  1
  O  O445  1  0.03740000  0.45371000  0.25137000  1
  O  O446  1  0.66920000  0.45640000  0.75013000  1
  O  O447  1  0.65800000  0.45685000  0.67622000  1
  O  O448  1  0.01740000  0.46277000  0.32499000  1
  O  O449  1  0.68750000  0.46473000  0.82281000  1
  O  O450  1  0.87570000  0.48059000  0.24474000  1
  O  O451  1  0.20080000  0.48161000  0.21531000  1
  O  O452  1  0.82970000  0.48173000  0.74430000  1
  O  O453  1  0.50550000  0.48368000  0.71268000  1
  O  O454  1  0.18310000  0.48574000  0.29210000  1
  O  O455  1  0.52290000  0.48806000  0.78914000  1
  O  O456  1  0.02290000  0.51194000  0.21086000  1
  O  O457  1  0.68310000  0.51426000  0.70790000  1
  O  O458  1  0.00550000  0.51632000  0.28732000  1
  O  O459  1  0.32970000  0.51827000  0.25570000  1
  O  O460  1  0.70080000  0.51839000  0.78469000  1
  O  O461  1  0.37570000  0.51941000  0.75526000  1
  O  O462  1  0.18750000  0.53527000  0.17719000  1
  O  O463  1  0.51740000  0.53723000  0.67501000  1
  O  O464  1  0.15800000  0.54315000  0.32378000  1
  O  O465  1  0.16920000  0.54360000  0.24987000  1
  O  O466  1  0.53740000  0.54629000  0.74863000  1
  O  O467  1  0.54870000  0.54643000  0.82284000  1
  O  O468  1  0.48260000  0.67501000  0.53723000  1
  O  O469  1  0.34200000  0.67622000  0.45685000  1
  O  O470  1  0.29870000  0.67716000  0.04643000  1
  O  O471  1  0.43750000  0.67719000  0.96473000  1
  O  O472  1  0.31690000  0.70790000  0.51426000  1
  O  O473  1  0.27290000  0.71086000  0.98806000  1
  O  O474  1  0.49450000  0.71268000  0.48368000  1
  O  O475  1  0.45080000  0.71531000  0.01839000  1
  O  O476  1  0.17030000  0.74430000  0.48173000  1
  O  O477  1  0.12570000  0.74474000  0.01941000  1
  O  O478  1  0.46260000  0.74863000  0.54629000  1
  O  O479  1  0.41920000  0.74987000  0.95640000  1
  O  O480  1  0.33080000  0.75013000  0.45640000  1
  O  O481  1  0.28740000  0.75137000  0.04629000  1
  O  O482  1  0.62430000  0.75526000  0.51941000  1
  O  O483  1  0.57970000  0.75570000  0.98173000  1
  O  O484  1  0.29920000  0.78469000  0.51839000  1
  O  O485  1  0.25550000  0.78732000  0.98368000  1
  O  O486  1  0.47710000  0.78914000  0.48806000  1
  O  O487  1  0.43310000  0.79210000  0.01426000  1
  O  O488  1  0.31250000  0.82281000  0.46473000  1
  O  O489  1  0.45130000  0.82284000  0.54643000  1
  O  O490  1  0.40800000  0.82378000  0.95685000  1
  O  O491  1  0.26740000  0.82499000  0.03723000  1
  O  O492  1  0.20130000  0.95357000  0.32284000  1
  O  O493  1  0.21260000  0.95371000  0.24863000  1
  O  O494  1  0.58080000  0.95640000  0.74987000  1
  O  O495  1  0.59200000  0.95685000  0.82378000  1
  O  O496  1  0.23260000  0.96277000  0.17501000  1
  O  O497  1  0.56250000  0.96473000  0.67719000  1
  O  O498  1  0.37430000  0.98059000  0.25526000  1
  O  O499  1  0.04920000  0.98161000  0.28469000  1
  O  O500  1  0.42030000  0.98173000  0.75570000  1
  O  O501  1  0.74450000  0.98368000  0.78732000  1
  O  O502  1  0.06690000  0.98574000  0.20790000  1
  O  O503  1  0.72710000  0.98806000  0.71086000  1
