# generated using pymatgen
data_Cu3H16C14(N2O5)2
_symmetry_space_group_name_H-M   'P 1'
_cell_length_a   10.16440000
_cell_length_b   12.41760000
_cell_length_c   12.86472879
_cell_angle_alpha   61.14321633
_cell_angle_beta   81.86303579
_cell_angle_gamma   72.94600000
_symmetry_Int_Tables_number   1
_chemical_formula_structural   Cu3H16C14(N2O5)2
_chemical_formula_sum   'Cu6 H32 C28 N8 O20'
_cell_volume   1359.59712222
_cell_formula_units_Z   2
loop_
 _symmetry_equiv_pos_site_id
 _symmetry_equiv_pos_as_xyz
  1  'x, y, z'
loop_
 _atom_site_type_symbol
 _atom_site_label
 _atom_site_symmetry_multiplicity
 _atom_site_fract_x
 _atom_site_fract_y
 _atom_site_fract_z
 _atom_site_occupancy
  C  C0  1  0.25590000  0.21210000  0.59820000  1
  C  C1  1  0.75590000  0.81030000  0.40180000  1
  C  C2  1  0.45850000  0.29278000  0.49424000  1
  C  C3  1  0.95850000  0.78702000  0.50576000  1
  C  C4  1  0.61590000  0.06029000  0.97902000  1
  C  C5  1  0.11590000  0.03931000  0.02098000  1
  C  C6  1  0.27820000  0.57792000  0.02836000  1
  C  C7  1  0.77820000  0.60628000  0.97164000  1
  C  C8  1  0.64100000  0.40943000  0.41334000  1
  C  C9  1  0.14100000  0.82277000  0.58666000  1
  C  C10  1  0.61600000  0.51477000  0.28606000  1
  C  C11  1  0.11600000  0.80083000  0.71394000  1
  C  C12  1  0.65410000  0.16220000  0.99400000  1
  C  C13  1  0.15410000  0.15620000  0.00600000  1
  C  C14  1  0.33170000  0.39240000  0.59060000  1
  C  C15  1  0.83170000  0.98300000  0.40940000  1
  C  C16  1  0.43620000  0.44690000  0.54000000  1
  C  C17  1  0.93620000  0.98690000  0.46000000  1
  C  C18  1  0.52540000  0.38507000  0.84786000  1
  C  C19  1  0.02540000  0.23293000  0.15214000  1
  C  C20  1  0.93970000  0.32605000  0.97190000  1
  C  C21  1  0.43970000  0.29795000  0.02810000  1
  C  C22  1  0.40840000  0.46931000  0.85278000  1
  C  C23  1  0.90840000  0.32209000  0.14722000  1
  C  C24  1  0.78390000  0.82221000  0.27818000  1
  C  C25  1  0.28390000  0.10039000  0.72182000  1
  C  C26  1  0.73970000  0.49070000  0.98460000  1
  C  C27  1  0.23970000  0.47530000  0.01540000  1
  Cu  Cu28  1  0.45931000  0.67738000  0.07742000  1
  Cu  Cu29  1  0.95931000  0.75480000  0.92258000  1
  Cu  Cu30  1  0.70400000  0.75786000  0.10598000  1
  Cu  Cu31  1  0.20400000  0.86384000  0.89402000  1
  Cu  Cu32  1  0.93515000  0.89230000  0.06076000  1
  Cu  Cu33  1  0.43515000  0.95306000  0.93924000  1
  H  H34  1  0.69950000  0.33060000  0.41240000  1
  H  H35  1  0.19950000  0.74300000  0.58760000  1
  H  H36  1  0.15950000  0.26270000  0.59480000  1
  H  H37  1  0.65950000  0.85750000  0.40520000  1
  H  H38  1  0.73730000  0.18170000  0.94600000  1
  H  H39  1  0.23730000  0.12770000  0.05400000  1
  H  H40  1  0.69270000  0.43340000  0.45520000  1
  H  H41  1  0.19270000  0.88860000  0.54480000  1
  H  H42  1  0.17720000  0.20640000  0.92180000  1
  H  H43  1  0.67720000  0.12820000  0.07820000  1
  H  H44  1  0.93600000  0.65960000  0.13080000  1
  H  H45  1  0.43600000  0.79040000  0.86920000  1
  H  H46  1  0.26060000  0.41570000  0.63820000  1
  H  H47  1  0.76060000  0.05390000  0.36180000  1
  H  H48  1  0.58370000  0.39630000  0.78080000  1
  H  H49  1  0.08370000  0.17710000  0.21920000  1
  H  H50  1  0.45240000  0.51630000  0.54420000  1
  H  H51  1  0.95240000  0.06050000  0.45580000  1
  H  H52  1  0.92740000  0.34770000  0.89160000  1
  H  H53  1  0.42740000  0.23930000  0.10840000  1
  H  H54  1  0.47200000  0.80450000  0.15900000  1
  H  H55  1  0.97200000  0.96350000  0.84100000  1
  H  H56  1  0.36980000  0.55160000  0.79060000  1
  H  H57  1  0.86980000  0.34220000  0.20940000  1
  H  H58  1  0.76490000  0.71960000  0.45920000  1
  H  H59  1  0.26490000  0.17880000  0.54080000  1
  H  H60  1  0.71500000  0.50600000  0.90600000  1
  H  H61  1  0.21500000  0.41200000  0.09400000  1
  H  H62  1  0.99200000  0.69720000  0.53820000  1
  H  H63  1  0.49200000  0.23540000  0.46180000  1
  H  H64  1  0.15890000  0.51410000  0.96260000  1
  H  H65  1  0.65890000  0.47670000  0.03740000  1
  N  N66  1  0.34680000  0.29682000  0.56096000  1
  N  N67  1  0.84680000  0.85778000  0.43904000  1
  N  N68  1  0.51550000  0.38243000  0.48054000  1
  N  N69  1  0.01550000  0.86297000  0.51946000  1
  N  N70  1  0.54420000  0.28000000  0.95800000  1
  N  N71  1  0.04420000  0.23800000  0.04200000  1
  N  N72  1  0.35570000  0.41232000  0.96596000  1
  N  N73  1  0.85570000  0.37828000  0.03404000  1
  O  O74  1  0.49040000  0.07611000  0.96338000  1
  O  O75  1  0.99040000  0.03949000  0.03662000  1
  O  O76  1  0.40210000  0.55431000  0.05378000  1
  O  O77  1  0.90210000  0.60809000  0.94622000  1
  O  O78  1  0.71960000  0.55107000  0.23426000  1
  O  O79  1  0.21960000  0.78533000  0.76574000  1
  O  O80  1  0.49750000  0.55155000  0.24250000  1
  O  O81  1  0.99750000  0.79405000  0.75750000  1
  O  O82  1  0.18620000  0.67595000  0.01510000  1
  O  O83  1  0.68620000  0.69105000  0.98490000  1
  O  O84  1  0.89890000  0.73496000  0.08168000  1
  O  O85  1  0.39890000  0.81664000  0.91832000  1
  O  O86  1  0.50650000  0.80888000  0.09404000  1
  O  O87  1  0.00650000  0.90292000  0.90596000  1
  O  O88  1  0.69840000  0.79006000  0.24408000  1
  O  O89  1  0.19840000  0.03414000  0.75592000  1
  O  O90  1  0.21310000  0.95398000  0.01444000  1
  O  O91  1  0.71310000  0.96842000  0.98556000  1
  O  O92  1  0.88650000  0.86074000  0.22312000  1
  O  O93  1  0.38650000  0.08386000  0.77688000  1
