# generated using pymatgen
data_FeH8Au2(C2N)8
_symmetry_space_group_name_H-M   'P 1'
_cell_length_a   9.67350000
_cell_length_b   15.83479402
_cell_length_c   15.83479402
_cell_angle_alpha   115.96358921
_cell_angle_beta   101.74953735
_cell_angle_gamma   101.74953735
_symmetry_Int_Tables_number   1
_chemical_formula_structural   FeH8Au2(C2N)8
_chemical_formula_sum   'Fe3 H24 Au6 C48 N24'
_cell_volume   2013.47522424
_cell_formula_units_Z   3
loop_
 _symmetry_equiv_pos_site_id
 _symmetry_equiv_pos_as_xyz
  1  'x, y, z'
loop_
 _atom_site_type_symbol
 _atom_site_label
 _atom_site_symmetry_multiplicity
 _atom_site_fract_x
 _atom_site_fract_y
 _atom_site_fract_z
 _atom_site_occupancy
  Au  Au0  1  1.00000000  0.70640000  0.29360000  1
  Au  Au1  1  1.00000000  0.29360000  0.70640000  1
  Au  Au2  1  0.70640000  0.70640000  0.41280000  1
  Au  Au3  1  0.70640000  0.41280000  0.70640000  1
  Au  Au4  1  0.29360000  0.58720000  0.29360000  1
  Au  Au5  1  0.29360000  0.29360000  0.58720000  1
  C  C6  1  0.79040000  0.60740000  0.42380000  1
  C  C7  1  0.79040000  0.42380000  0.60740000  1
  C  C8  1  0.35775000  0.00000000  0.08525000  1
  C  C9  1  0.35775000  0.08525000  0.00000000  1
  C  C10  1  0.36360000  0.91140000  0.18240000  1
  C  C11  1  0.36360000  0.18240000  0.91140000  1
  C  C12  1  0.72750000  0.08525000  0.08525000  1
  C  C13  1  0.39710000  1.00000000  0.17630000  1
  C  C14  1  0.39710000  0.17630000  0.00000000  1
  C  C15  1  0.38880000  0.91330000  0.27110000  1
  C  C16  1  0.38880000  0.27110000  0.91330000  1
  C  C17  1  0.18300000  0.81640000  0.39260000  1
  C  C18  1  0.18300000  0.39260000  0.81640000  1
  C  C19  1  0.63340000  0.81640000  0.42380000  1
  C  C20  1  0.63340000  0.42380000  0.81640000  1
  C  C21  1  0.77920000  0.17630000  0.17630000  1
  C  C22  1  0.45220000  0.08860000  0.27100000  1
  C  C23  1  0.45220000  0.27100000  0.08860000  1
  C  C24  1  0.11770000  0.72890000  0.64220000  1
  C  C25  1  0.11770000  0.64220000  0.72890000  1
  C  C26  1  0.47550000  0.08670000  0.35780000  1
  C  C27  1  0.47550000  0.35780000  0.08670000  1
  C  C28  1  0.81880000  0.27100000  0.18240000  1
  C  C29  1  0.81880000  0.18240000  0.27100000  1
  C  C30  1  0.18120000  0.81760000  0.72900000  1
  C  C31  1  0.18120000  0.72900000  0.81760000  1
  C  C32  1  0.52450000  0.91330000  0.64220000  1
  C  C33  1  0.52450000  0.64220000  0.91330000  1
  C  C34  1  0.88230000  0.35780000  0.27110000  1
  C  C35  1  0.88230000  0.27110000  0.35780000  1
  C  C36  1  0.54780000  0.91140000  0.72900000  1
  C  C37  1  0.54780000  0.72900000  0.91140000  1
  C  C38  1  0.22080000  0.82370000  0.82370000  1
  C  C39  1  0.36660000  0.18360000  0.57620000  1
  C  C40  1  0.36660000  0.57620000  0.18360000  1
  C  C41  1  0.81700000  0.18360000  0.60740000  1
  C  C42  1  0.81700000  0.60740000  0.18360000  1
  C  C43  1  0.61120000  0.08670000  0.72890000  1
  C  C44  1  0.61120000  0.72890000  0.08670000  1
  C  C45  1  0.60290000  0.00000000  0.82370000  1
  C  C46  1  0.60290000  0.82370000  0.00000000  1
  C  C47  1  0.27250000  0.91475000  0.91475000  1
  C  C48  1  0.63640000  0.08860000  0.81760000  1
  C  C49  1  0.63640000  0.81760000  0.08860000  1
  C  C50  1  0.64225000  0.00000000  0.91475000  1
  C  C51  1  0.64225000  0.91475000  1.00000000  1
  C  C52  1  0.20960000  0.57620000  0.39260000  1
  C  C53  1  0.20960000  0.39260000  0.57620000  1
  Fe  Fe54  1  1.00000000  0.50000000  0.50000000  1
  Fe  Fe55  1  0.50000000  0.00000000  0.50000000  1
  Fe  Fe56  1  0.50000000  0.50000000  0.00000000  1
  H  H57  1  0.67670000  0.87630000  0.14990000  1
  H  H58  1  0.67670000  0.14990000  0.87630000  1
  H  H59  1  0.36500000  0.85350000  0.27150000  1
  H  H60  1  0.36500000  0.27150000  0.85350000  1
  H  H61  1  0.09350000  0.72850000  0.58200000  1
  H  H62  1  0.09350000  0.58200000  0.72850000  1
  H  H63  1  0.80040000  0.12370000  0.27360000  1
  H  H64  1  0.80040000  0.27360000  0.12370000  1
  H  H65  1  0.47320000  0.27360000  0.14990000  1
  H  H66  1  0.47320000  0.14990000  0.27360000  1
  H  H67  1  0.48850000  0.85350000  0.58200000  1
  H  H68  1  0.48850000  0.58200000  0.85350000  1
  H  H69  1  0.51150000  0.14650000  0.41800000  1
  H  H70  1  0.51150000  0.41800000  0.14650000  1
  H  H71  1  0.52680000  0.85010000  0.72640000  1
  H  H72  1  0.52680000  0.72640000  0.85010000  1
  H  H73  1  0.19960000  0.87630000  0.72640000  1
  H  H74  1  0.19960000  0.72640000  0.87630000  1
  H  H75  1  0.90650000  0.41800000  0.27150000  1
  H  H76  1  0.90650000  0.27150000  0.41800000  1
  H  H77  1  0.63500000  0.14650000  0.72850000  1
  H  H78  1  0.63500000  0.72850000  0.14650000  1
  H  H79  1  0.32330000  0.12370000  0.85010000  1
  H  H80  1  0.32330000  0.85010000  0.12370000  1
  N  N81  1  0.15210000  0.55910000  0.44300000  1
  N  N82  1  0.15210000  0.44300000  0.55910000  1
  N  N83  1  0.70030000  1.00000000  0.09190000  1
  N  N84  1  0.70030000  0.09190000  0.00000000  1
  N  N85  1  0.39160000  0.09190000  0.09190000  1
  N  N86  1  0.09050000  0.64175000  0.64175000  1
  N  N87  1  0.59300000  0.88390000  0.44090000  1
  N  N88  1  0.59300000  0.44090000  0.88390000  1
  N  N89  1  0.29090000  0.88390000  0.44300000  1
  N  N90  1  0.29090000  0.44300000  0.88390000  1
  N  N91  1  0.44875000  0.00000000  0.35825000  1
  N  N92  1  0.44875000  0.35825000  0.00000000  1
  N  N93  1  0.55125000  0.00000000  0.64175000  1
  N  N94  1  0.55125000  0.64175000  0.00000000  1
  N  N95  1  0.70910000  0.11610000  0.55700000  1
  N  N96  1  0.70910000  0.55700000  0.11610000  1
  N  N97  1  0.40700000  0.11610000  0.55910000  1
  N  N98  1  0.40700000  0.55910000  0.11610000  1
  N  N99  1  0.90950000  0.35825000  0.35825000  1
  N  N100  1  0.60840000  0.90810000  0.90810000  1
  N  N101  1  0.29970000  1.00000000  0.90810000  1
  N  N102  1  0.29970000  0.90810000  0.00000000  1
  N  N103  1  0.84790000  0.55700000  0.44090000  1
  N  N104  1  0.84790000  0.44090000  0.55700000  1
