# generated using pymatgen
data_NiPC3NO3
_symmetry_space_group_name_H-M   'P 1'
_cell_length_a   6.24210000
_cell_length_b   16.20422401
_cell_length_c   16.20422401
_cell_angle_alpha   118.37682139
_cell_angle_beta   97.37742102
_cell_angle_gamma   97.37742102
_symmetry_Int_Tables_number   1
_chemical_formula_structural   NiPC3NO3
_chemical_formula_sum   'Ni6 P6 C18 N6 O18'
_cell_volume   1396.03911209
_cell_formula_units_Z   6
loop_
 _symmetry_equiv_pos_site_id
 _symmetry_equiv_pos_as_xyz
  1  'x, y, z'
loop_
 _atom_site_type_symbol
 _atom_site_label
 _atom_site_symmetry_multiplicity
 _atom_site_fract_x
 _atom_site_fract_y
 _atom_site_fract_z
 _atom_site_occupancy
  C  C0  1  0.74160000  0.57640000  0.46370000  1
  C  C1  1  0.12233000  0.59756000  0.53473000  1
  C  C2  1  0.07690000  0.56360000  0.60210000  1
  C  C3  1  0.16520000  0.88730000  0.42360000  1
  C  C4  1  0.52477000  0.93717000  0.40244000  1
  C  C5  1  0.72210000  0.46370000  0.88730000  1
  C  C6  1  0.47480000  0.39790000  0.96150000  1
  C  C7  1  0.41240000  0.53473000  0.93717000  1
  C  C8  1  0.51330000  0.03850000  0.43640000  1
  C  C9  1  0.48670000  0.96150000  0.56360000  1
  C  C10  1  0.58760000  0.46527000  0.06283000  1
  C  C11  1  0.52520000  0.60210000  0.03850000  1
  C  C12  1  0.27790000  0.53630000  0.11270000  1
  C  C13  1  0.47523000  0.06283000  0.59756000  1
  C  C14  1  0.83480000  0.11270000  0.57640000  1
  C  C15  1  0.92310000  0.43640000  0.39790000  1
  C  C16  1  0.87767000  0.40244000  0.46527000  1
  C  C17  1  0.25840000  0.42360000  0.53630000  1
  N  N18  1  0.05209000  0.46143000  0.56384000  1
  N  N19  1  0.48825000  0.43616000  0.89759000  1
  N  N20  1  0.40934000  0.89759000  0.46143000  1
  N  N21  1  0.59066000  0.10241000  0.53857000  1
  N  N22  1  0.51175000  0.56384000  0.10241000  1
  N  N23  1  0.94791000  0.53857000  0.43616000  1
  Ni  Ni24  1  0.30785000  0.33052000  0.75066000  1
  Ni  Ni25  1  0.97733000  0.42014000  0.66948000  1
  Ni  Ni26  1  0.44281000  0.75066000  0.42014000  1
  Ni  Ni27  1  0.55719000  0.24934000  0.57986000  1
  Ni  Ni28  1  0.02267000  0.57986000  0.33052000  1
  Ni  Ni29  1  0.69215000  0.66948000  0.24934000  1
  O  O30  1  0.60472000  0.28538000  0.72248000  1
  O  O31  1  0.62646000  0.39790000  0.63028000  1
  O  O32  1  0.99618000  0.36972000  0.76762000  1
  O  O33  1  0.31934000  0.43710000  0.71462000  1
  O  O34  1  0.86753000  0.29130000  0.86059000  1
  O  O35  1  0.11776000  0.72248000  0.43710000  1
  O  O36  1  0.77144000  0.76762000  0.39790000  1
  O  O37  1  0.57623000  0.56929000  0.70870000  1
  O  O38  1  0.99306000  0.86059000  0.56929000  1
  O  O39  1  0.00694000  0.13941000  0.43071000  1
  O  O40  1  0.42377000  0.43071000  0.29130000  1
  O  O41  1  0.22856000  0.23238000  0.60210000  1
  O  O42  1  0.88224000  0.27752000  0.56290000  1
  O  O43  1  0.13247000  0.70870000  0.13941000  1
  O  O44  1  0.68066000  0.56290000  0.28538000  1
  O  O45  1  0.00382000  0.63028000  0.23238000  1
  O  O46  1  0.37354000  0.60210000  0.36972000  1
  O  O47  1  0.39528000  0.71462000  0.27752000  1
  P  P48  1  0.46848000  0.46291000  0.65503000  1
  P  P49  1  0.81345000  0.34497000  0.80788000  1
  P  P50  1  0.99443000  0.80788000  0.46291000  1
  P  P51  1  0.00557000  0.19212000  0.53709000  1
  P  P52  1  0.18655000  0.65503000  0.19212000  1
  P  P53  1  0.53152000  0.53709000  0.34497000  1
