# generated using pymatgen
data_TbH3C7NO4
_symmetry_space_group_name_H-M   'P 1'
_cell_length_a   16.21900000
_cell_length_b   17.20241934
_cell_length_c   17.61553806
_cell_angle_alpha   77.46303540
_cell_angle_beta   62.58961999
_cell_angle_gamma   61.87373235
_symmetry_Int_Tables_number   1
_chemical_formula_structural   TbH3C7NO4
_chemical_formula_sum   'Tb8 H24 C56 N8 O32'
_cell_volume   3847.83170561
_cell_formula_units_Z   8
loop_
 _symmetry_equiv_pos_site_id
 _symmetry_equiv_pos_as_xyz
  1  'x, y, z'
loop_
 _atom_site_type_symbol
 _atom_site_label
 _atom_site_symmetry_multiplicity
 _atom_site_fract_x
 _atom_site_fract_y
 _atom_site_fract_z
 _atom_site_occupancy
  C  C0  1  0.83950000  0.37710000  0.54690000  1
  C  C1  1  0.23650000  0.87710000  0.04690000  1
  C  C2  1  0.71880000  0.41160000  0.47640000  1
  C  C3  1  0.39320000  0.91160000  0.97640000  1
  C  C4  1  0.81020000  0.35990000  0.48490000  1
  C  C5  1  0.34500000  0.85990000  0.98490000  1
  C  C6  1  0.70300000  0.38700000  0.41600000  1
  C  C7  1  0.49400000  0.88700000  0.91600000  1
  C  C8  1  0.77340000  0.30930000  0.37170000  1
  C  C9  1  0.54560000  0.80930000  0.87170000  1
  C  C10  1  0.11630000  0.35530000  0.31870000  1
  C  C11  1  0.20970000  0.85530000  0.81870000  1
  C  C12  1  0.10860000  0.04680000  0.60780000  1
  C  C13  1  0.23680000  0.54680000  0.10780000  1
  C  C14  1  0.86190000  0.26040000  0.38460000  1
  C  C15  1  0.49310000  0.76040000  0.88460000  1
  C  C16  1  0.12140000  0.40010000  0.23210000  1
  C  C17  1  0.24640000  0.90010000  0.73210000  1
  C  C18  1  0.17900000  0.49340000  0.13040000  1
  C  C19  1  0.19720000  0.99340000  0.63040000  1
  C  C20  1  0.08810000  0.38010000  0.18270000  1
  C  C21  1  0.34910000  0.88010000  0.68270000  1
  C  C22  1  0.15030000  0.47630000  0.07630000  1
  C  C23  1  0.29710000  0.97630000  0.57630000  1
  C  C24  1  0.10360000  0.42160000  0.10060000  1
  C  C25  1  0.37420000  0.92160000  0.60060000  1
  C  C26  1  0.94730000  0.17700000  0.33760000  1
  C  C27  1  0.53810000  0.67700000  0.83760000  1
  C  C28  1  0.05270000  0.82300000  0.66240000  1
  C  C29  1  0.46190000  0.32300000  0.16240000  1
  C  C30  1  0.89640000  0.57840000  0.89940000  1
  C  C31  1  0.62580000  0.07840000  0.39940000  1
  C  C32  1  0.84970000  0.52370000  0.92370000  1
  C  C33  1  0.70290000  0.02370000  0.42370000  1
  C  C34  1  0.91190000  0.61990000  0.81730000  1
  C  C35  1  0.65090000  0.11990000  0.31730000  1
  C  C36  1  0.82100000  0.50660000  0.86960000  1
  C  C37  1  0.80280000  0.00660000  0.36960000  1
  C  C38  1  0.87860000  0.59990000  0.76790000  1
  C  C39  1  0.75360000  0.09990000  0.26790000  1
  C  C40  1  0.13810000  0.73960000  0.61540000  1
  C  C41  1  0.50690000  0.23960000  0.11540000  1
  C  C42  1  0.89140000  0.95320000  0.39220000  1
  C  C43  1  0.76320000  0.45320000  0.89220000  1
  C  C44  1  0.88370000  0.64470000  0.68130000  1
  C  C45  1  0.79030000  0.14470000  0.18130000  1
  C  C46  1  0.22660000  0.69070000  0.62830000  1
  C  C47  1  0.45440000  0.19070000  0.12830000  1
  C  C48  1  0.29700000  0.61300000  0.58400000  1
  C  C49  1  0.50600000  0.11300000  0.08400000  1
  C  C50  1  0.18980000  0.64010000  0.51510000  1
  C  C51  1  0.65500000  0.14010000  0.01510000  1
  C  C52  1  0.28120000  0.58840000  0.52360000  1
  C  C53  1  0.60680000  0.08840000  0.02360000  1
  C  C54  1  0.16050000  0.62290000  0.45310000  1
  C  C55  1  0.76350000  0.12290000  0.95310000  1
  H  H56  1  0.66930000  0.46140000  0.51020000  1
  H  H57  1  0.35910000  0.96140000  0.01020000  1
  H  H58  1  0.64500000  0.42300000  0.40540000  1
  H  H59  1  0.52660000  0.92300000  0.90540000  1
  H  H60  1  0.76140000  0.29020000  0.33380000  1
  H  H61  1  0.61460000  0.79020000  0.83380000  1
  H  H62  1  0.05720000  0.34160000  0.20180000  1
  H  H63  1  0.39940000  0.84160000  0.70180000  1
  H  H64  1  0.16310000  0.50220000  0.02240000  1
  H  H65  1  0.31230000  0.00220000  0.52240000  1
  H  H66  1  0.91810000  0.58850000  0.93530000  1
  H  H67  1  0.55810000  0.08850000  0.43530000  1
  H  H68  1  0.08190000  0.41150000  0.06470000  1
  H  H69  1  0.44190000  0.91150000  0.56470000  1
  H  H70  1  0.83690000  0.49780000  0.97760000  1
  H  H71  1  0.68770000  0.99780000  0.47760000  1
  H  H72  1  0.94280000  0.65840000  0.79820000  1
  H  H73  1  0.60060000  0.15840000  0.29820000  1
  H  H74  1  0.23860000  0.70980000  0.66620000  1
  H  H75  1  0.38540000  0.20980000  0.16620000  1
  H  H76  1  0.35500000  0.57700000  0.59460000  1
  H  H77  1  0.47340000  0.07700000  0.09460000  1
  H  H78  1  0.33070000  0.53860000  0.48980000  1
  H  H79  1  0.64090000  0.03860000  0.98980000  1
  N  N80  1  0.88220000  0.28390000  0.43850000  1
  N  N81  1  0.39540000  0.78390000  0.93850000  1
  N  N82  1  0.16540000  0.45580000  0.20880000  1
  N  N83  1  0.17000000  0.95580000  0.70880000  1
  N  N84  1  0.83460000  0.54420000  0.79120000  1
  N  N85  1  0.83000000  0.04420000  0.29120000  1
  N  N86  1  0.11780000  0.71610000  0.56150000  1
  N  N87  1  0.60460000  0.21610000  0.06150000  1
  O  O88  1  0.81490000  0.05760000  0.90680000  1
  O  O89  1  0.22070000  0.55760000  0.40680000  1
  O  O90  1  0.92670000  0.32530000  0.54330000  1
  O  O91  1  0.20470000  0.82530000  0.04330000  1
  O  O92  1  0.11770000  0.87380000  0.85280000  1
  O  O93  1  0.15570000  0.37380000  0.35280000  1
  O  O94  1  0.02680000  0.04160000  0.65540000  1
  O  O95  1  0.27620000  0.54160000  0.15540000  1
  O  O96  1  0.07590000  0.30140000  0.34440000  1
  O  O97  1  0.27830000  0.80140000  0.84440000  1
  O  O98  1  0.11860000  0.09850000  0.54710000  1
  O  O99  1  0.23580000  0.59850000  0.04710000  1
  O  O100  1  0.06470000  0.85180000  0.71380000  1
  O  O101  1  0.36970000  0.35180000  0.21380000  1
  O  O102  1  0.97560000  0.85780000  0.64580000  1
  O  O103  1  0.52080000  0.35780000  0.14580000  1
  O  O104  1  0.02440000  0.14220000  0.35420000  1
  O  O105  1  0.47920000  0.64220000  0.85420000  1
  O  O106  1  0.93530000  0.14820000  0.28620000  1
  O  O107  1  0.63030000  0.64820000  0.78620000  1
  O  O108  1  0.88140000  0.90150000  0.45290000  1
  O  O109  1  0.76420000  0.40150000  0.95290000  1
  O  O110  1  0.92410000  0.69860000  0.65560000  1
  O  O111  1  0.72170000  0.19860000  0.15560000  1
  O  O112  1  0.97320000  0.95840000  0.34460000  1
  O  O113  1  0.72380000  0.45840000  0.84460000  1
  O  O114  1  0.88230000  0.12620000  0.14720000  1
  O  O115  1  0.84430000  0.62620000  0.64720000  1
  O  O116  1  0.07330000  0.67470000  0.45670000  1
  O  O117  1  0.79530000  0.17470000  0.95670000  1
  O  O118  1  0.18510000  0.94240000  0.09320000  1
  O  O119  1  0.77930000  0.44240000  0.59320000  1
  Tb  Tb120  1  0.98859000  0.97959000  0.79897000  1
  Tb  Tb121  1  0.23285000  0.47959000  0.29897000  1
  Tb  Tb122  1  0.04288000  0.19877000  0.45683000  1
  Tb  Tb123  1  0.30152000  0.69877000  0.95683000  1
  Tb  Tb124  1  0.95712000  0.80123000  0.54317000  1
  Tb  Tb125  1  0.69848000  0.30123000  0.04317000  1
  Tb  Tb126  1  0.01141000  0.02041000  0.20103000  1
  Tb  Tb127  1  0.76715000  0.52041000  0.70103000  1
