# generated using pymatgen
data_In5H9C9(S4N)2
_symmetry_space_group_name_H-M   'P 1'
_cell_length_a   22.48350000
_cell_length_b   22.52200000
_cell_length_c   34.48410000
_cell_angle_alpha   90.00000000
_cell_angle_beta   90.00000000
_cell_angle_gamma   90.00000000
_symmetry_Int_Tables_number   1
_chemical_formula_structural   In5H9C9(S4N)2
_chemical_formula_sum   'In80 H144 C144 S128 N32'
_cell_volume   17461.83051465
_cell_formula_units_Z   16
loop_
 _symmetry_equiv_pos_site_id
 _symmetry_equiv_pos_as_xyz
  1  'x, y, z'
loop_
 _atom_site_type_symbol
 _atom_site_label
 _atom_site_symmetry_multiplicity
 _atom_site_fract_x
 _atom_site_fract_y
 _atom_site_fract_z
 _atom_site_occupancy
  In  In0  1  0.02123000  0.45382000  0.65901000  1
  In  In1  1  0.02123000  0.95382000  0.84099000  1
  In  In2  1  0.07312000  0.09711000  0.88472000  1
  In  In3  1  0.07312000  0.59711000  0.61528000  1
  In  In4  1  0.14546000  0.22788000  0.93045000  1
  In  In5  1  0.14546000  0.72788000  0.56955000  1
  In  In6  1  0.15741000  0.01672000  0.79352000  1
  In  In7  1  0.15741000  0.51672000  0.70648000  1
  In  In8  1  0.15768000  0.43519000  0.59974000  1
  In  In9  1  0.15768000  0.93519000  0.90026000  1
  In  In10  1  0.18972000  0.00810000  0.35780000  1
  In  In11  1  0.18972000  0.50810000  0.14220000  1
  In  In12  1  0.19972000  0.08858000  0.26325000  1
  In  In13  1  0.19972000  0.58858000  0.23675000  1
  In  In14  1  0.20020000  0.43832000  0.04408000  1
  In  In15  1  0.20020000  0.93832000  0.45592000  1
  In  In16  1  0.22561000  0.08662000  0.94901000  1
  In  In17  1  0.22561000  0.58662000  0.55099000  1
  In  In18  1  0.22632000  0.16824000  0.84298000  1
  In  In19  1  0.22632000  0.66824000  0.65702000  1
  In  In20  1  0.27368000  0.16824000  0.34298000  1
  In  In21  1  0.27368000  0.66824000  0.15702000  1
  In  In22  1  0.27439000  0.08662000  0.44901000  1
  In  In23  1  0.27439000  0.58662000  0.05099000  1
  In  In24  1  0.29980000  0.43832000  0.54408000  1
  In  In25  1  0.29980000  0.93832000  0.95592000  1
  In  In26  1  0.30028000  0.08858000  0.76325000  1
  In  In27  1  0.30028000  0.58858000  0.73675000  1
  In  In28  1  0.31028000  0.00810000  0.85780000  1
  In  In29  1  0.31028000  0.50810000  0.64220000  1
  In  In30  1  0.34232000  0.43519000  0.09974000  1
  In  In31  1  0.34232000  0.93519000  0.40026000  1
  In  In32  1  0.34259000  0.01672000  0.29352000  1
  In  In33  1  0.34259000  0.51672000  0.20648000  1
  In  In34  1  0.35454000  0.22788000  0.43045000  1
  In  In35  1  0.35454000  0.72788000  0.06955000  1
  In  In36  1  0.42688000  0.09711000  0.38472000  1
  In  In37  1  0.42688000  0.59711000  0.11528000  1
  In  In38  1  0.47877000  0.45382000  0.15901000  1
  In  In39  1  0.47877000  0.95382000  0.34099000  1
  In  In40  1  0.52123000  0.04618000  0.65901000  1
  In  In41  1  0.52123000  0.54618000  0.84099000  1
  In  In42  1  0.57312000  0.40289000  0.88472000  1
  In  In43  1  0.57312000  0.90289000  0.61528000  1
  In  In44  1  0.64546000  0.27212000  0.93045000  1
  In  In45  1  0.64546000  0.77212000  0.56955000  1
  In  In46  1  0.65741000  0.48328000  0.79352000  1
  In  In47  1  0.65741000  0.98328000  0.70648000  1
  In  In48  1  0.65768000  0.06481000  0.59974000  1
  In  In49  1  0.65768000  0.56481000  0.90026000  1
  In  In50  1  0.68972000  0.49190000  0.35780000  1
  In  In51  1  0.68972000  0.99190000  0.14220000  1
  In  In52  1  0.69972000  0.41142000  0.26325000  1
  In  In53  1  0.69972000  0.91142000  0.23675000  1
  In  In54  1  0.70020000  0.06168000  0.04408000  1
  In  In55  1  0.70020000  0.56168000  0.45592000  1
  In  In56  1  0.72561000  0.41338000  0.94901000  1
  In  In57  1  0.72561000  0.91338000  0.55099000  1
  In  In58  1  0.72632000  0.33176000  0.84298000  1
  In  In59  1  0.72632000  0.83176000  0.65702000  1
  In  In60  1  0.77368000  0.33176000  0.34298000  1
  In  In61  1  0.77368000  0.83176000  0.15702000  1
  In  In62  1  0.77439000  0.41338000  0.44901000  1
  In  In63  1  0.77439000  0.91338000  0.05099000  1
  In  In64  1  0.79980000  0.06168000  0.54408000  1
  In  In65  1  0.79980000  0.56168000  0.95592000  1
  In  In66  1  0.80028000  0.41142000  0.76325000  1
  In  In67  1  0.80028000  0.91142000  0.73675000  1
  In  In68  1  0.81028000  0.49190000  0.85780000  1
  In  In69  1  0.81028000  0.99190000  0.64220000  1
  In  In70  1  0.84232000  0.06481000  0.09974000  1
  In  In71  1  0.84232000  0.56481000  0.40026000  1
  In  In72  1  0.84259000  0.48328000  0.29352000  1
  In  In73  1  0.84259000  0.98328000  0.20648000  1
  In  In74  1  0.85454000  0.27212000  0.43045000  1
  In  In75  1  0.85454000  0.77212000  0.06955000  1
  In  In76  1  0.92688000  0.40289000  0.38472000  1
  In  In77  1  0.92688000  0.90289000  0.11528000  1
  In  In78  1  0.97877000  0.04618000  0.15901000  1
  In  In79  1  0.97877000  0.54618000  0.34099000  1
  H  H80  1  0.01160000  0.02760000  0.59870000  1
  H  H81  1  0.01160000  0.52760000  0.90130000  1
  H  H82  1  0.02080000  0.46210000  0.05790000  1
  H  H83  1  0.02080000  0.96210000  0.44210000  1
  H  H84  1  0.02680000  0.10260000  0.36990000  1
  H  H85  1  0.02680000  0.60260000  0.13010000  1
  H  H86  1  0.02760000  0.03320000  0.37980000  1
  H  H87  1  0.02760000  0.53320000  0.12020000  1
  H  H88  1  0.03710000  0.33000000  0.91010000  1
  H  H89  1  0.03710000  0.83000000  0.58990000  1
  H  H90  1  0.04680000  0.05840000  0.56370000  1
  H  H91  1  0.04680000  0.55840000  0.93630000  1
  H  H92  1  0.05110000  0.16910000  0.11160000  1
  H  H93  1  0.05110000  0.66910000  0.38840000  1
  H  H94  1  0.06760000  0.07820000  0.40440000  1
  H  H95  1  0.06760000  0.57820000  0.09560000  1
  H  H96  1  0.07920000  0.04340000  0.22330000  1
  H  H97  1  0.07920000  0.54340000  0.27670000  1
  H  H98  1  0.08960000  0.28580000  0.08840000  1
  H  H99  1  0.08960000  0.78580000  0.41160000  1
  H  H100  1  0.09430000  0.49200000  0.98690000  1
  H  H101  1  0.09430000  0.99200000  0.51310000  1
  H  H102  1  0.10630000  0.23140000  0.06060000  1
  H  H103  1  0.10630000  0.73140000  0.43940000  1
  H  H104  1  0.15750000  0.27420000  0.07680000  1
  H  H105  1  0.15750000  0.77420000  0.42320000  1
  H  H106  1  0.19160000  0.30740000  0.00290000  1
  H  H107  1  0.19160000  0.80740000  0.49710000  1
  H  H108  1  0.20190000  0.31030000  0.13100000  1
  H  H109  1  0.20190000  0.81030000  0.36900000  1
  H  H110  1  0.21920000  0.19290000  0.19050000  1
  H  H111  1  0.21920000  0.69290000  0.30950000  1
  H  H112  1  0.23880000  0.26220000  0.10670000  1
  H  H113  1  0.23880000  0.76220000  0.39330000  1
  H  H114  1  0.24680000  0.27250000  0.65160000  1
  H  H115  1  0.24680000  0.77250000  0.84840000  1
  H  H116  1  0.25320000  0.27250000  0.15160000  1
  H  H117  1  0.25320000  0.77250000  0.34840000  1
  H  H118  1  0.26120000  0.26220000  0.60670000  1
  H  H119  1  0.26120000  0.76220000  0.89330000  1
  H  H120  1  0.28080000  0.19290000  0.69050000  1
  H  H121  1  0.28080000  0.69290000  0.80950000  1
  H  H122  1  0.29810000  0.31030000  0.63100000  1
  H  H123  1  0.29810000  0.81030000  0.86900000  1
  H  H124  1  0.30840000  0.30740000  0.50290000  1
  H  H125  1  0.30840000  0.80740000  0.99710000  1
  H  H126  1  0.34250000  0.27420000  0.57680000  1
  H  H127  1  0.34250000  0.77420000  0.92320000  1
  H  H128  1  0.39370000  0.23140000  0.56060000  1
  H  H129  1  0.39370000  0.73140000  0.93940000  1
  H  H130  1  0.40570000  0.49200000  0.48690000  1
  H  H131  1  0.40570000  0.99200000  0.01310000  1
  H  H132  1  0.41040000  0.28580000  0.58840000  1
  H  H133  1  0.41040000  0.78580000  0.91160000  1
  H  H134  1  0.42080000  0.04340000  0.72330000  1
  H  H135  1  0.42080000  0.54340000  0.77670000  1
  H  H136  1  0.43240000  0.07820000  0.90440000  1
  H  H137  1  0.43240000  0.57820000  0.59560000  1
  H  H138  1  0.44890000  0.16910000  0.61160000  1
  H  H139  1  0.44890000  0.66910000  0.88840000  1
  H  H140  1  0.45320000  0.05840000  0.06370000  1
  H  H141  1  0.45320000  0.55840000  0.43630000  1
  H  H142  1  0.46290000  0.33000000  0.41010000  1
  H  H143  1  0.46290000  0.83000000  0.08990000  1
  H  H144  1  0.47240000  0.03320000  0.87980000  1
  H  H145  1  0.47240000  0.53320000  0.62020000  1
  H  H146  1  0.47320000  0.10260000  0.86990000  1
  H  H147  1  0.47320000  0.60260000  0.63010000  1
  H  H148  1  0.47920000  0.46210000  0.55790000  1
  H  H149  1  0.47920000  0.96210000  0.94210000  1
  H  H150  1  0.48840000  0.02760000  0.09870000  1
  H  H151  1  0.48840000  0.52760000  0.40130000  1
  H  H152  1  0.51160000  0.47240000  0.59870000  1
  H  H153  1  0.51160000  0.97240000  0.90130000  1
  H  H154  1  0.52080000  0.03790000  0.05790000  1
  H  H155  1  0.52080000  0.53790000  0.44210000  1
  H  H156  1  0.52680000  0.39740000  0.36990000  1
  H  H157  1  0.52680000  0.89740000  0.13010000  1
  H  H158  1  0.52760000  0.46680000  0.37980000  1
  H  H159  1  0.52760000  0.96680000  0.12020000  1
  H  H160  1  0.53710000  0.17000000  0.91010000  1
  H  H161  1  0.53710000  0.67000000  0.58990000  1
  H  H162  1  0.54680000  0.44160000  0.56370000  1
  H  H163  1  0.54680000  0.94160000  0.93630000  1
  H  H164  1  0.55110000  0.33090000  0.11160000  1
  H  H165  1  0.55110000  0.83090000  0.38840000  1
  H  H166  1  0.56760000  0.42180000  0.40440000  1
  H  H167  1  0.56760000  0.92180000  0.09560000  1
  H  H168  1  0.57920000  0.45660000  0.22330000  1
  H  H169  1  0.57920000  0.95660000  0.27670000  1
  H  H170  1  0.58960000  0.21420000  0.08840000  1
  H  H171  1  0.58960000  0.71420000  0.41160000  1
  H  H172  1  0.59430000  0.00800000  0.98690000  1
  H  H173  1  0.59430000  0.50800000  0.51310000  1
  H  H174  1  0.60630000  0.26860000  0.06060000  1
  H  H175  1  0.60630000  0.76860000  0.43940000  1
  H  H176  1  0.65750000  0.22580000  0.07680000  1
  H  H177  1  0.65750000  0.72580000  0.42320000  1
  H  H178  1  0.69160000  0.19260000  0.00290000  1
  H  H179  1  0.69160000  0.69260000  0.49710000  1
  H  H180  1  0.70190000  0.18970000  0.13100000  1
  H  H181  1  0.70190000  0.68970000  0.36900000  1
  H  H182  1  0.71920000  0.30710000  0.19050000  1
  H  H183  1  0.71920000  0.80710000  0.30950000  1
  H  H184  1  0.73880000  0.23780000  0.10670000  1
  H  H185  1  0.73880000  0.73780000  0.39330000  1
  H  H186  1  0.74680000  0.22750000  0.65160000  1
  H  H187  1  0.74680000  0.72750000  0.84840000  1
  H  H188  1  0.75320000  0.22750000  0.15160000  1
  H  H189  1  0.75320000  0.72750000  0.34840000  1
  H  H190  1  0.76120000  0.23780000  0.60670000  1
  H  H191  1  0.76120000  0.73780000  0.89330000  1
  H  H192  1  0.78080000  0.30710000  0.69050000  1
  H  H193  1  0.78080000  0.80710000  0.80950000  1
  H  H194  1  0.79810000  0.18970000  0.63100000  1
  H  H195  1  0.79810000  0.68970000  0.86900000  1
  H  H196  1  0.80840000  0.19260000  0.50290000  1
  H  H197  1  0.80840000  0.69260000  0.99710000  1
  H  H198  1  0.84250000  0.22580000  0.57680000  1
  H  H199  1  0.84250000  0.72580000  0.92320000  1
  H  H200  1  0.89370000  0.26860000  0.56060000  1
  H  H201  1  0.89370000  0.76860000  0.93940000  1
  H  H202  1  0.90570000  0.00800000  0.48690000  1
  H  H203  1  0.90570000  0.50800000  0.01310000  1
  H  H204  1  0.91040000  0.21420000  0.58840000  1
  H  H205  1  0.91040000  0.71420000  0.91160000  1
  H  H206  1  0.92080000  0.45660000  0.72330000  1
  H  H207  1  0.92080000  0.95660000  0.77670000  1
  H  H208  1  0.93240000  0.42180000  0.90440000  1
  H  H209  1  0.93240000  0.92180000  0.59560000  1
  H  H210  1  0.94890000  0.33090000  0.61160000  1
  H  H211  1  0.94890000  0.83090000  0.88840000  1
  H  H212  1  0.95320000  0.44160000  0.06370000  1
  H  H213  1  0.95320000  0.94160000  0.43630000  1
  H  H214  1  0.96290000  0.17000000  0.41010000  1
  H  H215  1  0.96290000  0.67000000  0.08990000  1
  H  H216  1  0.97240000  0.46680000  0.87980000  1
  H  H217  1  0.97240000  0.96680000  0.62020000  1
  H  H218  1  0.97320000  0.39740000  0.86990000  1
  H  H219  1  0.97320000  0.89740000  0.63010000  1
  H  H220  1  0.97920000  0.03790000  0.55790000  1
  H  H221  1  0.97920000  0.53790000  0.94210000  1
  H  H222  1  0.98840000  0.47240000  0.09870000  1
  H  H223  1  0.98840000  0.97240000  0.40130000  1
  C  C224  1  0.01700000  0.02830000  0.57000000  1
  C  C225  1  0.01700000  0.52830000  0.93000000  1
  C  C226  1  0.02280000  0.41770000  0.91990000  1
  C  C227  1  0.02280000  0.91770000  0.58010000  1
  C  C228  1  0.03000000  0.07300000  0.39080000  1
  C  C229  1  0.03000000  0.57300000  0.10920000  1
  C  C230  1  0.03910000  0.46560000  0.94370000  1
  C  C231  1  0.03910000  0.96560000  0.55630000  1
  C  C232  1  0.04970000  0.36350000  0.92460000  1
  C  C233  1  0.04970000  0.86350000  0.57540000  1
  C  C234  1  0.08300000  0.45940000  0.97110000  1
  C  C235  1  0.08300000  0.95940000  0.52890000  1
  C  C236  1  0.08580000  0.17330000  0.12710000  1
  C  C237  1  0.08580000  0.67330000  0.37290000  1
  C  C238  1  0.09210000  0.07450000  0.20660000  1
  C  C239  1  0.09210000  0.57450000  0.29340000  1
  C  C240  1  0.09580000  0.13580000  0.16020000  1
  C  C241  1  0.09580000  0.63580000  0.33980000  1
  C  C242  1  0.09650000  0.35890000  0.95160000  1
  C  C243  1  0.09650000  0.85890000  0.54840000  1
  C  C244  1  0.10940000  0.40640000  0.97510000  1
  C  C245  1  0.10940000  0.90640000  0.52490000  1
  C  C246  1  0.11940000  0.25520000  0.08280000  1
  C  C247  1  0.11940000  0.75520000  0.41720000  1
  C  C248  1  0.12690000  0.21440000  0.11870000  1
  C  C249  1  0.12690000  0.71440000  0.38130000  1
  C  C250  1  0.14440000  0.14330000  0.18350000  1
  C  C251  1  0.14440000  0.64330000  0.31650000  1
  C  C252  1  0.16250000  0.33110000  0.99020000  1
  C  C253  1  0.16250000  0.83110000  0.50980000  1
  C  C254  1  0.17680000  0.22460000  0.14270000  1
  C  C255  1  0.17680000  0.72460000  0.35730000  1
  C  C256  1  0.18510000  0.18770000  0.17460000  1
  C  C257  1  0.18510000  0.68770000  0.32540000  1
  C  C258  1  0.22160000  0.27150000  0.13210000  1
  C  C259  1  0.22160000  0.77150000  0.36790000  1
  C  C260  1  0.27840000  0.27150000  0.63210000  1
  C  C261  1  0.27840000  0.77150000  0.86790000  1
  C  C262  1  0.31490000  0.18770000  0.67460000  1
  C  C263  1  0.31490000  0.68770000  0.82540000  1
  C  C264  1  0.32320000  0.22460000  0.64270000  1
  C  C265  1  0.32320000  0.72460000  0.85730000  1
  C  C266  1  0.33750000  0.33110000  0.49020000  1
  C  C267  1  0.33750000  0.83110000  0.00980000  1
  C  C268  1  0.35560000  0.14330000  0.68350000  1
  C  C269  1  0.35560000  0.64330000  0.81650000  1
  C  C270  1  0.37310000  0.21440000  0.61870000  1
  C  C271  1  0.37310000  0.71440000  0.88130000  1
  C  C272  1  0.38060000  0.25520000  0.58280000  1
  C  C273  1  0.38060000  0.75520000  0.91720000  1
  C  C274  1  0.39060000  0.40640000  0.47510000  1
  C  C275  1  0.39060000  0.90640000  0.02490000  1
  C  C276  1  0.40350000  0.35890000  0.45160000  1
  C  C277  1  0.40350000  0.85890000  0.04840000  1
  C  C278  1  0.40420000  0.13580000  0.66020000  1
  C  C279  1  0.40420000  0.63580000  0.83980000  1
  C  C280  1  0.40790000  0.07450000  0.70660000  1
  C  C281  1  0.40790000  0.57450000  0.79340000  1
  C  C282  1  0.41420000  0.17330000  0.62710000  1
  C  C283  1  0.41420000  0.67330000  0.87290000  1
  C  C284  1  0.41700000  0.45940000  0.47110000  1
  C  C285  1  0.41700000  0.95940000  0.02890000  1
  C  C286  1  0.45030000  0.36350000  0.42460000  1
  C  C287  1  0.45030000  0.86350000  0.07540000  1
  C  C288  1  0.46090000  0.46560000  0.44370000  1
  C  C289  1  0.46090000  0.96560000  0.05630000  1
  C  C290  1  0.47000000  0.07300000  0.89080000  1
  C  C291  1  0.47000000  0.57300000  0.60920000  1
  C  C292  1  0.47720000  0.41770000  0.41990000  1
  C  C293  1  0.47720000  0.91770000  0.08010000  1
  C  C294  1  0.48300000  0.02830000  0.07000000  1
  C  C295  1  0.48300000  0.52830000  0.43000000  1
  C  C296  1  0.51700000  0.47170000  0.57000000  1
  C  C297  1  0.51700000  0.97170000  0.93000000  1
  C  C298  1  0.52280000  0.08230000  0.91990000  1
  C  C299  1  0.52280000  0.58230000  0.58010000  1
  C  C300  1  0.53000000  0.42700000  0.39080000  1
  C  C301  1  0.53000000  0.92700000  0.10920000  1
  C  C302  1  0.53910000  0.03440000  0.94370000  1
  C  C303  1  0.53910000  0.53440000  0.55630000  1
  C  C304  1  0.54970000  0.13650000  0.92460000  1
  C  C305  1  0.54970000  0.63650000  0.57540000  1
  C  C306  1  0.58300000  0.04060000  0.97110000  1
  C  C307  1  0.58300000  0.54060000  0.52890000  1
  C  C308  1  0.58580000  0.32670000  0.12710000  1
  C  C309  1  0.58580000  0.82670000  0.37290000  1
  C  C310  1  0.59210000  0.42550000  0.20660000  1
  C  C311  1  0.59210000  0.92550000  0.29340000  1
  C  C312  1  0.59580000  0.36420000  0.16020000  1
  C  C313  1  0.59580000  0.86420000  0.33980000  1
  C  C314  1  0.59650000  0.14110000  0.95160000  1
  C  C315  1  0.59650000  0.64110000  0.54840000  1
  C  C316  1  0.60940000  0.09360000  0.97510000  1
  C  C317  1  0.60940000  0.59360000  0.52490000  1
  C  C318  1  0.61940000  0.24480000  0.08280000  1
  C  C319  1  0.61940000  0.74480000  0.41720000  1
  C  C320  1  0.62690000  0.28560000  0.11870000  1
  C  C321  1  0.62690000  0.78560000  0.38130000  1
  C  C322  1  0.64440000  0.35670000  0.18350000  1
  C  C323  1  0.64440000  0.85670000  0.31650000  1
  C  C324  1  0.66250000  0.16890000  0.99020000  1
  C  C325  1  0.66250000  0.66890000  0.50980000  1
  C  C326  1  0.67680000  0.27540000  0.14270000  1
  C  C327  1  0.67680000  0.77540000  0.35730000  1
  C  C328  1  0.68510000  0.31230000  0.17460000  1
  C  C329  1  0.68510000  0.81230000  0.32540000  1
  C  C330  1  0.72160000  0.22850000  0.13210000  1
  C  C331  1  0.72160000  0.72850000  0.36790000  1
  C  C332  1  0.77840000  0.22850000  0.63210000  1
  C  C333  1  0.77840000  0.72850000  0.86790000  1
  C  C334  1  0.81490000  0.31230000  0.67460000  1
  C  C335  1  0.81490000  0.81230000  0.82540000  1
  C  C336  1  0.82320000  0.27540000  0.64270000  1
  C  C337  1  0.82320000  0.77540000  0.85730000  1
  C  C338  1  0.83750000  0.16890000  0.49020000  1
  C  C339  1  0.83750000  0.66890000  0.00980000  1
  C  C340  1  0.85560000  0.35670000  0.68350000  1
  C  C341  1  0.85560000  0.85670000  0.81650000  1
  C  C342  1  0.87310000  0.28560000  0.61870000  1
  C  C343  1  0.87310000  0.78560000  0.88130000  1
  C  C344  1  0.88060000  0.24480000  0.58280000  1
  C  C345  1  0.88060000  0.74480000  0.91720000  1
  C  C346  1  0.89060000  0.09360000  0.47510000  1
  C  C347  1  0.89060000  0.59360000  0.02490000  1
  C  C348  1  0.90350000  0.14110000  0.45160000  1
  C  C349  1  0.90350000  0.64110000  0.04840000  1
  C  C350  1  0.90420000  0.36420000  0.66020000  1
  C  C351  1  0.90420000  0.86420000  0.83980000  1
  C  C352  1  0.90790000  0.42550000  0.70660000  1
  C  C353  1  0.90790000  0.92550000  0.79340000  1
  C  C354  1  0.91420000  0.32670000  0.62710000  1
  C  C355  1  0.91420000  0.82670000  0.87290000  1
  C  C356  1  0.91700000  0.04060000  0.47110000  1
  C  C357  1  0.91700000  0.54060000  0.02890000  1
  C  C358  1  0.95030000  0.13650000  0.42460000  1
  C  C359  1  0.95030000  0.63650000  0.07540000  1
  C  C360  1  0.96090000  0.03440000  0.44370000  1
  C  C361  1  0.96090000  0.53440000  0.05630000  1
  C  C362  1  0.97000000  0.42700000  0.89080000  1
  C  C363  1  0.97000000  0.92700000  0.60920000  1
  C  C364  1  0.97720000  0.08230000  0.41990000  1
  C  C365  1  0.97720000  0.58230000  0.08010000  1
  C  C366  1  0.98300000  0.47170000  0.07000000  1
  C  C367  1  0.98300000  0.97170000  0.43000000  1
  S  S368  1  0.01708000  0.45310000  0.36697000  1
  S  S369  1  0.01708000  0.95310000  0.13303000  1
  S  S370  1  0.04810000  0.19010000  0.91545000  1
  S  S371  1  0.04810000  0.69010000  0.58455000  1
  S  S372  1  0.06690000  0.46500000  0.72247000  1
  S  S373  1  0.06690000  0.96500000  0.77753000  1
  S  S374  1  0.06720000  0.38390000  0.61552000  1
  S  S375  1  0.06720000  0.88390000  0.88448000  1
  S  S376  1  0.13059000  0.02990000  0.30145000  1
  S  S377  1  0.13059000  0.52990000  0.19855000  1
  S  S378  1  0.13220000  0.03398000  0.93035000  1
  S  S379  1  0.13220000  0.53398000  0.56965000  1
  S  S380  1  0.13228000  0.11467000  0.82453000  1
  S  S381  1  0.13228000  0.61467000  0.67547000  1
  S  S382  1  0.13680000  0.44120000  0.10046000  1
  S  S383  1  0.13680000  0.94120000  0.39954000  1
  S  S384  1  0.19790000  0.26114000  0.87253000  1
  S  S385  1  0.19790000  0.76114000  0.62747000  1
  S  S386  1  0.20300000  0.17990000  0.98012000  1
  S  S387  1  0.20300000  0.67990000  0.51988000  1
  S  S388  1  0.21180000  0.37750000  0.55268000  1
  S  S389  1  0.21180000  0.87750000  0.94732000  1
  S  S390  1  0.21410000  0.02920000  0.49227000  1
  S  S391  1  0.21410000  0.52920000  0.00773000  1
  S  S392  1  0.21487000  0.10569000  0.38877000  1
  S  S393  1  0.21487000  0.60569000  0.11123000  1
  S  S394  1  0.21580000  0.03620000  0.73631000  1
  S  S395  1  0.21580000  0.53620000  0.76369000  1
  S  S396  1  0.21611000  0.45448000  0.66005000  1
  S  S397  1  0.21611000  0.95448000  0.83995000  1
  S  S398  1  0.21680000  0.18880000  0.28552000  1
  S  S399  1  0.21680000  0.68880000  0.21448000  1
  S  S400  1  0.28320000  0.18880000  0.78552000  1
  S  S401  1  0.28320000  0.68880000  0.71448000  1
  S  S402  1  0.28389000  0.45448000  0.16005000  1
  S  S403  1  0.28389000  0.95448000  0.33995000  1
  S  S404  1  0.28420000  0.03620000  0.23631000  1
  S  S405  1  0.28420000  0.53620000  0.26369000  1
  S  S406  1  0.28513000  0.10569000  0.88877000  1
  S  S407  1  0.28513000  0.60569000  0.61123000  1
  S  S408  1  0.28590000  0.02920000  0.99227000  1
  S  S409  1  0.28590000  0.52920000  0.50773000  1
  S  S410  1  0.28820000  0.37750000  0.05268000  1
  S  S411  1  0.28820000  0.87750000  0.44732000  1
  S  S412  1  0.29700000  0.17990000  0.48012000  1
  S  S413  1  0.29700000  0.67990000  0.01988000  1
  S  S414  1  0.30210000  0.26114000  0.37253000  1
  S  S415  1  0.30210000  0.76114000  0.12747000  1
  S  S416  1  0.36320000  0.44120000  0.60046000  1
  S  S417  1  0.36320000  0.94120000  0.89954000  1
  S  S418  1  0.36772000  0.11467000  0.32453000  1
  S  S419  1  0.36772000  0.61467000  0.17547000  1
  S  S420  1  0.36780000  0.03398000  0.43035000  1
  S  S421  1  0.36780000  0.53398000  0.06965000  1
  S  S422  1  0.36941000  0.02990000  0.80145000  1
  S  S423  1  0.36941000  0.52990000  0.69855000  1
  S  S424  1  0.43280000  0.38390000  0.11552000  1
  S  S425  1  0.43280000  0.88390000  0.38448000  1
  S  S426  1  0.43310000  0.46500000  0.22247000  1
  S  S427  1  0.43310000  0.96500000  0.27753000  1
  S  S428  1  0.45190000  0.19010000  0.41545000  1
  S  S429  1  0.45190000  0.69010000  0.08455000  1
  S  S430  1  0.48292000  0.45310000  0.86697000  1
  S  S431  1  0.48292000  0.95310000  0.63303000  1
  S  S432  1  0.51708000  0.04690000  0.36697000  1
  S  S433  1  0.51708000  0.54690000  0.13303000  1
  S  S434  1  0.54810000  0.30990000  0.91545000  1
  S  S435  1  0.54810000  0.80990000  0.58455000  1
  S  S436  1  0.56690000  0.03500000  0.72247000  1
  S  S437  1  0.56690000  0.53500000  0.77753000  1
  S  S438  1  0.56720000  0.11610000  0.61552000  1
  S  S439  1  0.56720000  0.61610000  0.88448000  1
  S  S440  1  0.63059000  0.47010000  0.30145000  1
  S  S441  1  0.63059000  0.97010000  0.19855000  1
  S  S442  1  0.63220000  0.46602000  0.93035000  1
  S  S443  1  0.63220000  0.96602000  0.56965000  1
  S  S444  1  0.63228000  0.38533000  0.82453000  1
  S  S445  1  0.63228000  0.88533000  0.67547000  1
  S  S446  1  0.63680000  0.05880000  0.10046000  1
  S  S447  1  0.63680000  0.55880000  0.39954000  1
  S  S448  1  0.69790000  0.23886000  0.87253000  1
  S  S449  1  0.69790000  0.73886000  0.62747000  1
  S  S450  1  0.70300000  0.32010000  0.98012000  1
  S  S451  1  0.70300000  0.82010000  0.51988000  1
  S  S452  1  0.71180000  0.12250000  0.55268000  1
  S  S453  1  0.71180000  0.62250000  0.94732000  1
  S  S454  1  0.71410000  0.47080000  0.49227000  1
  S  S455  1  0.71410000  0.97080000  0.00773000  1
  S  S456  1  0.71487000  0.39431000  0.38877000  1
  S  S457  1  0.71487000  0.89431000  0.11123000  1
  S  S458  1  0.71580000  0.46380000  0.73631000  1
  S  S459  1  0.71580000  0.96380000  0.76369000  1
  S  S460  1  0.71611000  0.04552000  0.66005000  1
  S  S461  1  0.71611000  0.54552000  0.83995000  1
  S  S462  1  0.71680000  0.31120000  0.28552000  1
  S  S463  1  0.71680000  0.81120000  0.21448000  1
  S  S464  1  0.78320000  0.31120000  0.78552000  1
  S  S465  1  0.78320000  0.81120000  0.71448000  1
  S  S466  1  0.78389000  0.04552000  0.16005000  1
  S  S467  1  0.78389000  0.54552000  0.33995000  1
  S  S468  1  0.78420000  0.46380000  0.23631000  1
  S  S469  1  0.78420000  0.96380000  0.26369000  1
  S  S470  1  0.78513000  0.39431000  0.88877000  1
  S  S471  1  0.78513000  0.89431000  0.61123000  1
  S  S472  1  0.78590000  0.47080000  0.99227000  1
  S  S473  1  0.78590000  0.97080000  0.50773000  1
  S  S474  1  0.78820000  0.12250000  0.05268000  1
  S  S475  1  0.78820000  0.62250000  0.44732000  1
  S  S476  1  0.79700000  0.32010000  0.48012000  1
  S  S477  1  0.79700000  0.82010000  0.01988000  1
  S  S478  1  0.80210000  0.23886000  0.37253000  1
  S  S479  1  0.80210000  0.73886000  0.12747000  1
  S  S480  1  0.86320000  0.05880000  0.60046000  1
  S  S481  1  0.86320000  0.55880000  0.89954000  1
  S  S482  1  0.86772000  0.38533000  0.32453000  1
  S  S483  1  0.86772000  0.88533000  0.17547000  1
  S  S484  1  0.86780000  0.46602000  0.43035000  1
  S  S485  1  0.86780000  0.96602000  0.06965000  1
  S  S486  1  0.86941000  0.47010000  0.80145000  1
  S  S487  1  0.86941000  0.97010000  0.69855000  1
  S  S488  1  0.93280000  0.11610000  0.11552000  1
  S  S489  1  0.93280000  0.61610000  0.38448000  1
  S  S490  1  0.93310000  0.03500000  0.22247000  1
  S  S491  1  0.93310000  0.53500000  0.27753000  1
  S  S492  1  0.95190000  0.30990000  0.41545000  1
  S  S493  1  0.95190000  0.80990000  0.08455000  1
  S  S494  1  0.98292000  0.04690000  0.86697000  1
  S  S495  1  0.98292000  0.54690000  0.63303000  1
  N  N496  1  0.06130000  0.09050000  0.17600000  1
  N  N497  1  0.06130000  0.59050000  0.32400000  1
  N  N498  1  0.13080000  0.31100000  0.96100000  1
  N  N499  1  0.13080000  0.81100000  0.53900000  1
  N  N500  1  0.14260000  0.10420000  0.21310000  1
  N  N501  1  0.14260000  0.60420000  0.28690000  1
  N  N502  1  0.15130000  0.38680000  0.00090000  1
  N  N503  1  0.15130000  0.88680000  0.49910000  1
  N  N504  1  0.34870000  0.38680000  0.50090000  1
  N  N505  1  0.34870000  0.88680000  0.99910000  1
  N  N506  1  0.35740000  0.10420000  0.71310000  1
  N  N507  1  0.35740000  0.60420000  0.78690000  1
  N  N508  1  0.36920000  0.31100000  0.46100000  1
  N  N509  1  0.36920000  0.81100000  0.03900000  1
  N  N510  1  0.43870000  0.09050000  0.67600000  1
  N  N511  1  0.43870000  0.59050000  0.82400000  1
  N  N512  1  0.56130000  0.40950000  0.17600000  1
  N  N513  1  0.56130000  0.90950000  0.32400000  1
  N  N514  1  0.63080000  0.18900000  0.96100000  1
  N  N515  1  0.63080000  0.68900000  0.53900000  1
  N  N516  1  0.64260000  0.39580000  0.21310000  1
  N  N517  1  0.64260000  0.89580000  0.28690000  1
  N  N518  1  0.65130000  0.11320000  0.00090000  1
  N  N519  1  0.65130000  0.61320000  0.49910000  1
  N  N520  1  0.84870000  0.11320000  0.50090000  1
  N  N521  1  0.84870000  0.61320000  0.99910000  1
  N  N522  1  0.85740000  0.39580000  0.71310000  1
  N  N523  1  0.85740000  0.89580000  0.78690000  1
  N  N524  1  0.86920000  0.18900000  0.46100000  1
  N  N525  1  0.86920000  0.68900000  0.03900000  1
  N  N526  1  0.93870000  0.40950000  0.67600000  1
  N  N527  1  0.93870000  0.90950000  0.82400000  1
