# generated using pymatgen
data_MgH8C13NO5
_symmetry_space_group_name_H-M   'P 1'
_cell_length_a   12.56690000
_cell_length_b   12.56690000
_cell_length_c   13.54830000
_cell_angle_alpha   114.29140000
_cell_angle_beta   117.60250000
_cell_angle_gamma   93.26660000
_symmetry_Int_Tables_number   1
_chemical_formula_structural   MgH8C13NO5
_chemical_formula_sum   'Mg4 H32 C52 N4 O20'
_cell_volume   1645.04987646
_cell_formula_units_Z   4
loop_
 _symmetry_equiv_pos_site_id
 _symmetry_equiv_pos_as_xyz
  1  'x, y, z'
loop_
 _atom_site_type_symbol
 _atom_site_label
 _atom_site_symmetry_multiplicity
 _atom_site_fract_x
 _atom_site_fract_y
 _atom_site_fract_z
 _atom_site_occupancy
  Mg  Mg0  1  0.55532000  0.80532000  0.75000000  1
  Mg  Mg1  1  0.50000000  0.00000000  0.00000000  1
  Mg  Mg2  1  0.50000000  0.50000000  0.50000000  1
  Mg  Mg3  1  0.44468000  0.19468000  0.25000000  1
  H  H4  1  0.95330000  0.36260000  0.55270000  1
  H  H5  1  0.90920000  0.84940000  0.99680000  1
  H  H6  1  0.89670000  0.64530000  0.66820000  1
  H  H7  1  0.89280000  0.24570000  0.23370000  1
  H  H8  1  0.87870000  0.04570000  0.90300000  1
  H  H9  1  0.86760000  0.59080000  0.40560000  1
  H  H10  1  0.74670000  0.30930000  0.50180000  1
  H  H11  1  0.69250000  0.75510000  0.00180000  1
  H  H12  1  0.69010000  0.59940000  0.05270000  1
  H  H13  1  0.68520000  0.46200000  0.09440000  1
  H  H14  1  0.67460000  0.30350000  0.13910000  1
  H  H15  1  0.66440000  0.53550000  0.36090000  1
  H  H16  1  0.64740000  0.08760000  0.49680000  1
  H  H17  1  0.64270000  0.97570000  0.59700000  1
  H  H18  1  0.52290000  0.77150000  0.16820000  1
  H  H19  1  0.51200000  0.65910000  0.26630000  1
  H  H20  1  0.48800000  0.34090000  0.73370000  1
  H  H21  1  0.47710000  0.22850000  0.83180000  1
  H  H22  1  0.35730000  0.02430000  0.40300000  1
  H  H23  1  0.35260000  0.91240000  0.50320000  1
  H  H24  1  0.33560000  0.46450000  0.63910000  1
  H  H25  1  0.32540000  0.69650000  0.86090000  1
  H  H26  1  0.31480000  0.53800000  0.90560000  1
  H  H27  1  0.30990000  0.40060000  0.94730000  1
  H  H28  1  0.30750000  0.24490000  0.99820000  1
  H  H29  1  0.25330000  0.69070000  0.49820000  1
  H  H30  1  0.13240000  0.40920000  0.59440000  1
  H  H31  1  0.12130000  0.95430000  0.09700000  1
  H  H32  1  0.10720000  0.75430000  0.76630000  1
  H  H33  1  0.10330000  0.35470000  0.33180000  1
  H  H34  1  0.09080000  0.15060000  0.00320000  1
  H  H35  1  0.04670000  0.63740000  0.44730000  1
  C  C36  1  0.94923000  0.82961000  0.94970000  1
  C  C37  1  0.94161000  0.70943000  0.75490000  1
  C  C38  1  0.93423000  0.48207000  0.48382000  1
  C  C39  1  0.93257000  0.22627000  0.18640000  1
  C  C40  1  0.92463000  0.10735000  0.99080000  1
  C  C41  1  0.89504000  0.39808000  0.51200000  1
  C  C42  1  0.88151000  0.73811000  0.82204000  1
  C  C43  1  0.86545000  0.13397000  0.05918000  1
  C  C44  1  0.84473000  0.53275000  0.42580000  1
  C  C45  1  0.77206000  0.36586000  0.48130000  1
  C  C46  1  0.74183000  0.67683000  0.75444000  1
  C  C47  1  0.73110000  0.05774000  0.99498000  1
  C  C48  1  0.72369000  0.49881000  0.39800000  1
  C  C49  1  0.62009000  0.00047000  0.44970000  1
  C  C50  1  0.61655000  0.93383000  0.50920000  1
  C  C51  1  0.61544000  0.70924000  0.98130000  1
  C  C52  1  0.61392000  0.61696000  0.01200000  1
  C  C53  1  0.60695000  0.41893000  0.07420000  1
  C  C54  1  0.60081000  0.32569000  0.10200000  1
  C  C55  1  0.58393000  0.94053000  0.32204000  1
  C  C56  1  0.57761000  0.01261000  0.25444000  1
  C  C57  1  0.57479000  0.80627000  0.44082000  1
  C  C58  1  0.56276000  0.73612000  0.50502000  1
  C  C59  1  0.54547000  0.81329000  0.25490000  1
  C  C60  1  0.53987000  0.74617000  0.31360000  1
  C  C61  1  0.50175000  0.54959000  0.98382000  1
  C  C62  1  0.49825000  0.45041000  0.01618000  1
  C  C63  1  0.46013000  0.25383000  0.68640000  1
  C  C64  1  0.45453000  0.18671000  0.74510000  1
  C  C65  1  0.43724000  0.26388000  0.49498000  1
  C  C66  1  0.42521000  0.19373000  0.55918000  1
  C  C67  1  0.42239000  0.98739000  0.74556000  1
  C  C68  1  0.41607000  0.05947000  0.67796000  1
  C  C69  1  0.39919000  0.67431000  0.89800000  1
  C  C70  1  0.39305000  0.58107000  0.92580000  1
  C  C71  1  0.38608000  0.38304000  0.98800000  1
  C  C72  1  0.38456000  0.29076000  0.01870000  1
  C  C73  1  0.38345000  0.06617000  0.49080000  1
  C  C74  1  0.37991000  0.99953000  0.55030000  1
  C  C75  1  0.27631000  0.50119000  0.60200000  1
  C  C76  1  0.26890000  0.94226000  0.00502000  1
  C  C77  1  0.25817000  0.32317000  0.24556000  1
  C  C78  1  0.22794000  0.63414000  0.51870000  1
  C  C79  1  0.15527000  0.46725000  0.57420000  1
  C  C80  1  0.13455000  0.86603000  0.94082000  1
  C  C81  1  0.11849000  0.26189000  0.17796000  1
  C  C82  1  0.10496000  0.60192000  0.48800000  1
  C  C83  1  0.07537000  0.89265000  0.00920000  1
  C  C84  1  0.06743000  0.77373000  0.81360000  1
  C  C85  1  0.06577000  0.51793000  0.51618000  1
  C  C86  1  0.05839000  0.29057000  0.24510000  1
  C  C87  1  0.05077000  0.17039000  0.05030000  1
  N  N88  1  0.68853000  0.41441000  0.42264000  1
  N  N89  1  0.50823000  0.73411000  0.92264000  1
  N  N90  1  0.49177000  0.26589000  0.07736000  1
  N  N91  1  0.31147000  0.58559000  0.57736000  1
  O  O92  1  0.68942000  0.72560000  0.81414000  1
  O  O93  1  0.68795000  0.58475000  0.64458000  1
  O  O94  1  0.68283000  0.08124000  0.06215000  1
  O  O95  1  0.67953000  0.97604000  0.88025000  1
  O  O96  1  0.59579000  0.79928000  0.61975000  1
  O  O97  1  0.58854000  0.12472000  0.31414000  1
  O  O98  1  0.56883000  0.37947000  0.38916000  1
  O  O99  1  0.55983000  0.95663000  0.14458000  1
  O  O100  1  0.51909000  0.62068000  0.43785000  1
  O  O101  1  0.50969000  0.82033000  0.88916000  1
  O  O102  1  0.49031000  0.17967000  0.11084000  1
  O  O103  1  0.48091000  0.37932000  0.56215000  1
  O  O104  1  0.44017000  0.04337000  0.85542000  1
  O  O105  1  0.43117000  0.62053000  0.61084000  1
  O  O106  1  0.41146000  0.87528000  0.68586000  1
  O  O107  1  0.40421000  0.20072000  0.38025000  1
  O  O108  1  0.32047000  0.02396000  0.11975000  1
  O  O109  1  0.31717000  0.91876000  0.93785000  1
  O  O110  1  0.31205000  0.41525000  0.35542000  1
  O  O111  1  0.31058000  0.27440000  0.18586000  1
