# generated using pymatgen
data_CuH24(C4N3)4
_symmetry_space_group_name_H-M   'P 1'
_cell_length_a   10.94810050
_cell_length_b   10.94810050
_cell_length_c   14.27637518
_cell_angle_alpha   106.03917492
_cell_angle_beta   106.03917492
_cell_angle_gamma   106.22566427
_symmetry_Int_Tables_number   1
_chemical_formula_structural   CuH24(C4N3)4
_chemical_formula_sum   'Cu2 H48 C32 N24'
_cell_volume   1458.60857598
_cell_formula_units_Z   2
loop_
 _symmetry_equiv_pos_site_id
 _symmetry_equiv_pos_as_xyz
  1  'x, y, z'
loop_
 _atom_site_type_symbol
 _atom_site_label
 _atom_site_symmetry_multiplicity
 _atom_site_fract_x
 _atom_site_fract_y
 _atom_site_fract_z
 _atom_site_occupancy
  C  C0  1  0.71745000  0.34965000  0.06770000  1
  C  C1  1  0.78195000  0.64975000  0.43230000  1
  C  C2  1  0.92390000  0.95990000  0.97040000  1
  C  C3  1  0.48950000  0.95350000  0.52960000  1
  C  C4  1  0.80420000  0.46220000  0.38260000  1
  C  C5  1  0.57960000  0.42160000  0.11740000  1
  C  C6  1  0.37795000  0.95355000  0.57350000  1
  C  C7  1  0.88005000  0.80445000  0.92650000  1
  C  C8  1  0.54645000  0.12205000  0.92650000  1
  C  C9  1  0.69555000  0.61995000  0.57350000  1
  C  C10  1  0.03780000  0.69580000  0.11740000  1
  C  C11  1  0.07840000  0.92040000  0.38260000  1
  C  C12  1  0.54010000  0.57610000  0.52960000  1
  C  C13  1  0.54650000  0.01050000  0.97040000  1
  C  C14  1  0.15035000  0.78255000  0.43230000  1
  C  C15  1  0.85025000  0.71805000  0.06770000  1
  C  C16  1  0.14975000  0.28195000  0.93230000  1
  C  C17  1  0.84965000  0.21745000  0.56770000  1
  C  C18  1  0.45350000  0.98950000  0.02960000  1
  C  C19  1  0.45990000  0.42390000  0.47040000  1
  C  C20  1  0.92160000  0.07960000  0.61740000  1
  C  C21  1  0.96220000  0.30420000  0.88260000  1
  C  C22  1  0.30445000  0.38005000  0.42650000  1
  C  C23  1  0.45355000  0.87795000  0.07350000  1
  C  C24  1  0.11995000  0.19555000  0.07350000  1
  C  C25  1  0.62205000  0.04645000  0.42650000  1
  C  C26  1  0.42040000  0.57840000  0.88260000  1
  C  C27  1  0.19580000  0.53780000  0.61740000  1
  C  C28  1  0.51050000  0.04650000  0.47040000  1
  C  C29  1  0.07610000  0.04010000  0.02960000  1
  C  C30  1  0.21805000  0.35025000  0.56770000  1
  C  C31  1  0.28255000  0.65035000  0.93230000  1
  Cu  Cu32  1  0.12500000  0.37500000  0.75000000  1
  Cu  Cu33  1  0.87500000  0.62500000  0.25000000  1
  H  H34  1  0.89290000  0.98850000  0.91180000  1
  H  H35  1  0.57670000  0.98110000  0.58820000  1
  H  H36  1  0.21970000  0.26290000  0.56040000  1
  H  H37  1  0.20250000  0.65930000  0.93960000  1
  H  H38  1  0.82190000  0.38890000  0.34420000  1
  H  H39  1  0.54470000  0.47770000  0.15580000  1
  H  H40  1  0.60840000  0.12700000  0.88820000  1
  H  H41  1  0.73880000  0.72020000  0.61180000  1
  H  H42  1  0.87680000  0.98420000  0.01760000  1
  H  H43  1  0.46660000  0.85920000  0.48240000  1
  H  H44  1  0.40240000  0.04660000  0.62380000  1
  H  H45  1  0.92280000  0.77860000  0.87620000  1
  H  H46  1  0.45340000  0.09760000  0.87620000  1
  H  H47  1  0.72140000  0.57720000  0.62380000  1
  H  H48  1  0.51580000  0.62320000  0.48240000  1
  H  H49  1  0.64080000  0.03340000  0.01760000  1
  H  H50  1  0.37300000  0.89160000  0.61180000  1
  H  H51  1  0.77980000  0.76120000  0.88820000  1
  H  H52  1  0.11110000  0.67810000  0.15580000  1
  H  H53  1  0.02230000  0.95530000  0.34420000  1
  H  H54  1  0.23710000  0.28030000  0.93960000  1
  H  H55  1  0.84070000  0.29750000  0.56040000  1
  H  H56  1  0.51150000  0.60710000  0.58820000  1
  H  H57  1  0.51890000  0.92330000  0.91180000  1
  H  H58  1  0.48110000  0.07670000  0.08820000  1
  H  H59  1  0.48850000  0.39290000  0.41180000  1
  H  H60  1  0.15930000  0.70250000  0.43960000  1
  H  H61  1  0.76290000  0.71970000  0.06040000  1
  H  H62  1  0.97770000  0.04470000  0.65580000  1
  H  H63  1  0.88890000  0.32190000  0.84420000  1
  H  H64  1  0.22020000  0.23880000  0.11180000  1
  H  H65  1  0.62700000  0.10840000  0.38820000  1
  H  H66  1  0.35920000  0.96660000  0.98240000  1
  H  H67  1  0.48420000  0.37680000  0.51760000  1
  H  H68  1  0.27860000  0.42280000  0.37620000  1
  H  H69  1  0.54660000  0.90240000  0.12380000  1
  H  H70  1  0.07720000  0.22140000  0.12380000  1
  H  H71  1  0.59760000  0.95340000  0.37620000  1
  H  H72  1  0.53340000  0.14080000  0.51760000  1
  H  H73  1  0.12320000  0.01580000  0.98240000  1
  H  H74  1  0.26120000  0.27980000  0.38820000  1
  H  H75  1  0.39160000  0.87300000  0.11180000  1
  H  H76  1  0.45530000  0.52230000  0.84420000  1
  H  H77  1  0.17810000  0.61110000  0.65580000  1
  H  H78  1  0.79750000  0.34070000  0.06040000  1
  H  H79  1  0.78030000  0.73710000  0.43960000  1
  H  H80  1  0.42330000  0.01890000  0.41180000  1
  H  H81  1  0.10710000  0.01150000  0.08820000  1
  N  N82  1  0.18108000  0.42292000  0.63780000  1
  N  N83  1  0.28512000  0.54328000  0.86220000  1
  N  N84  1  0.59064333  0.25729667  0.00954000  1
  N  N85  1  0.74775000  0.58111000  0.49046000  1
  N  N86  1  0.76280000  0.46060000  0.46060000  1
  N  N87  1  0.50000000  0.30220000  0.03940000  1
  N  N88  1  0.03940000  0.73720000  0.03940000  1
  N  N89  1  0.19780000  0.00000000  0.46060000  1
  N  N90  1  0.24270333  0.90935667  0.49046000  1
  N  N91  1  0.91889000  0.75225000  0.00954000  1
  N  N92  1  0.07708000  0.31892000  0.86220000  1
  N  N93  1  0.95672000  0.21488000  0.63780000  1
  N  N94  1  0.04328000  0.78512000  0.36220000  1
  N  N95  1  0.92292000  0.68108000  0.13780000  1
  N  N96  1  0.08111000  0.24775000  0.99046000  1
  N  N97  1  0.75729667  0.09064333  0.50954000  1
  N  N98  1  0.80220000  0.00000000  0.53940000  1
  N  N99  1  0.96060000  0.26280000  0.96060000  1
  N  N100  1  0.50000000  0.69780000  0.96060000  1
  N  N101  1  0.23720000  0.53940000  0.53940000  1
  N  N102  1  0.25225000  0.41889000  0.50954000  1
  N  N103  1  0.40935667  0.74270333  0.99046000  1
  N  N104  1  0.71488000  0.45672000  0.13780000  1
  N  N105  1  0.81892000  0.57708000  0.36220000  1
