# generated using pymatgen
data_CuH2C6SO4
_symmetry_space_group_name_H-M   'P 1'
_cell_length_a   18.64340000
_cell_length_b   18.64340000
_cell_length_c   18.64340000
_cell_angle_alpha   60.00000000
_cell_angle_beta   60.00000000
_cell_angle_gamma   60.00000000
_symmetry_Int_Tables_number   1
_chemical_formula_structural   CuH2C6SO4
_chemical_formula_sum   'Cu12 H24 C72 S12 O48'
_cell_volume   4582.05560235
_cell_formula_units_Z   12
loop_
 _symmetry_equiv_pos_site_id
 _symmetry_equiv_pos_as_xyz
  1  'x, y, z'
loop_
 _atom_site_type_symbol
 _atom_site_label
 _atom_site_symmetry_multiplicity
 _atom_site_fract_x
 _atom_site_fract_y
 _atom_site_fract_z
 _atom_site_occupancy
  Cu  Cu0  1  0.43018000  0.56982000  0.00000000  1
  Cu  Cu1  1  0.56982000  0.43018000  0.00000000  1
  Cu  Cu2  1  0.43018000  0.00000000  0.00000000  1
  Cu  Cu3  1  0.00000000  0.43018000  0.00000000  1
  Cu  Cu4  1  0.56982000  1.00000000  1.00000000  1
  Cu  Cu5  1  0.00000000  0.56982000  1.00000000  1
  Cu  Cu6  1  0.43018000  0.00000000  0.56982000  1
  Cu  Cu7  1  0.00000000  0.43018000  0.56982000  1
  Cu  Cu8  1  0.00000000  0.00000000  0.56982000  1
  Cu  Cu9  1  0.56982000  0.00000000  0.43018000  1
  Cu  Cu10  1  0.00000000  0.56982000  0.43018000  1
  Cu  Cu11  1  0.00000000  0.00000000  0.43018000  1
  H  H12  1  0.27020000  0.27020000  0.97380000  1
  H  H13  1  0.27020000  0.48580000  0.97380000  1
  H  H14  1  0.48580000  0.27020000  0.97380000  1
  H  H15  1  0.02620000  0.51420000  0.72980000  1
  H  H16  1  0.51420000  0.02620000  0.72980000  1
  H  H17  1  0.02620000  0.72980000  0.72980000  1
  H  H18  1  0.72980000  0.02620000  0.72980000  1
  H  H19  1  0.51420000  0.72980000  0.72980000  1
  H  H20  1  0.72980000  0.51420000  0.72980000  1
  H  H21  1  0.02620000  0.72980000  0.51420000  1
  H  H22  1  0.72980000  0.02620000  0.51420000  1
  H  H23  1  0.72980000  0.72980000  0.51420000  1
  H  H24  1  0.27020000  0.27020000  0.48580000  1
  H  H25  1  0.27020000  0.97380000  0.48580000  1
  H  H26  1  0.97380000  0.27020000  0.48580000  1
  H  H27  1  0.27020000  0.48580000  0.27020000  1
  H  H28  1  0.48580000  0.27020000  0.27020000  1
  H  H29  1  0.27020000  0.97380000  0.27020000  1
  H  H30  1  0.97380000  0.27020000  0.27020000  1
  H  H31  1  0.48580000  0.97380000  0.27020000  1
  H  H32  1  0.97380000  0.48580000  0.27020000  1
  H  H33  1  0.51420000  0.72980000  0.02620000  1
  H  H34  1  0.72980000  0.51420000  0.02620000  1
  H  H35  1  0.72980000  0.72980000  0.02620000  1
  C  C36  1  0.16100000  0.43080000  0.97740000  1
  C  C37  1  0.43080000  0.16100000  0.97740000  1
  C  C38  1  0.43080000  0.43080000  0.97740000  1
  C  C39  1  0.29960000  0.29960000  0.97200000  1
  C  C40  1  0.29960000  0.42880000  0.97200000  1
  C  C41  1  0.42880000  0.29960000  0.97200000  1
  C  C42  1  0.25730000  0.38590000  0.97090000  1
  C  C43  1  0.38590000  0.25730000  0.97090000  1
  C  C44  1  0.38590000  0.38590000  0.97090000  1
  C  C45  1  0.02260000  0.56920000  0.83900000  1
  C  C46  1  0.56920000  0.02260000  0.83900000  1
  C  C47  1  0.56920000  0.56920000  0.83900000  1
  C  C48  1  0.02910000  0.61410000  0.74270000  1
  C  C49  1  0.61410000  0.02910000  0.74270000  1
  C  C50  1  0.61410000  0.61410000  0.74270000  1
  C  C51  1  0.02800000  0.57120000  0.70040000  1
  C  C52  1  0.57120000  0.02800000  0.70040000  1
  C  C53  1  0.02800000  0.70040000  0.70040000  1
  C  C54  1  0.70040000  0.02800000  0.70040000  1
  C  C55  1  0.57120000  0.70040000  0.70040000  1
  C  C56  1  0.70040000  0.57120000  0.70040000  1
  C  C57  1  0.02910000  0.61410000  0.61410000  1
  C  C58  1  0.61410000  0.02910000  0.61410000  1
  C  C59  1  0.02910000  0.74270000  0.61410000  1
  C  C60  1  0.74270000  0.02910000  0.61410000  1
  C  C61  1  0.61410000  0.74270000  0.61410000  1
  C  C62  1  0.74270000  0.61410000  0.61410000  1
  C  C63  1  0.02800000  0.70040000  0.57120000  1
  C  C64  1  0.70040000  0.02800000  0.57120000  1
  C  C65  1  0.70040000  0.70040000  0.57120000  1
  C  C66  1  0.02260000  0.56920000  0.56920000  1
  C  C67  1  0.56920000  0.02260000  0.56920000  1
  C  C68  1  0.02260000  0.83900000  0.56920000  1
  C  C69  1  0.83900000  0.02260000  0.56920000  1
  C  C70  1  0.56920000  0.83900000  0.56920000  1
  C  C71  1  0.83900000  0.56920000  0.56920000  1
  C  C72  1  0.16100000  0.43080000  0.43080000  1
  C  C73  1  0.43080000  0.16100000  0.43080000  1
  C  C74  1  0.16100000  0.97740000  0.43080000  1
  C  C75  1  0.97740000  0.16100000  0.43080000  1
  C  C76  1  0.43080000  0.97740000  0.43080000  1
  C  C77  1  0.97740000  0.43080000  0.43080000  1
  C  C78  1  0.29960000  0.29960000  0.42880000  1
  C  C79  1  0.29960000  0.97200000  0.42880000  1
  C  C80  1  0.97200000  0.29960000  0.42880000  1
  C  C81  1  0.25730000  0.38590000  0.38590000  1
  C  C82  1  0.38590000  0.25730000  0.38590000  1
  C  C83  1  0.25730000  0.97090000  0.38590000  1
  C  C84  1  0.97090000  0.25730000  0.38590000  1
  C  C85  1  0.38590000  0.97090000  0.38590000  1
  C  C86  1  0.97090000  0.38590000  0.38590000  1
  C  C87  1  0.29960000  0.42880000  0.29960000  1
  C  C88  1  0.42880000  0.29960000  0.29960000  1
  C  C89  1  0.29960000  0.97200000  0.29960000  1
  C  C90  1  0.97200000  0.29960000  0.29960000  1
  C  C91  1  0.42880000  0.97200000  0.29960000  1
  C  C92  1  0.97200000  0.42880000  0.29960000  1
  C  C93  1  0.38590000  0.38590000  0.25730000  1
  C  C94  1  0.38590000  0.97090000  0.25730000  1
  C  C95  1  0.97090000  0.38590000  0.25730000  1
  C  C96  1  0.43080000  0.43080000  0.16100000  1
  C  C97  1  0.43080000  0.97740000  0.16100000  1
  C  C98  1  0.97740000  0.43080000  0.16100000  1
  C  C99  1  0.61410000  0.61410000  0.02910000  1
  C  C100  1  0.61410000  0.74270000  0.02910000  1
  C  C101  1  0.74270000  0.61410000  0.02910000  1
  C  C102  1  0.57120000  0.70040000  0.02800000  1
  C  C103  1  0.70040000  0.57120000  0.02800000  1
  C  C104  1  0.70040000  0.70040000  0.02800000  1
  C  C105  1  0.56920000  0.56920000  0.02260000  1
  C  C106  1  0.56920000  0.83900000  0.02260000  1
  C  C107  1  0.83900000  0.56920000  0.02260000  1
  S  S108  1  0.30820000  0.69180000  0.00000000  1
  S  S109  1  0.69180000  0.30820000  0.00000000  1
  S  S110  1  0.30820000  1.00000000  1.00000000  1
  S  S111  1  0.00000000  0.30820000  1.00000000  1
  S  S112  1  0.69180000  1.00000000  1.00000000  1
  S  S113  1  0.00000000  0.69180000  1.00000000  1
  S  S114  1  0.30820000  1.00000000  0.69180000  1
  S  S115  1  0.00000000  0.30820000  0.69180000  1
  S  S116  1  0.00000000  1.00000000  0.69180000  1
  S  S117  1  0.69180000  0.00000000  0.30820000  1
  S  S118  1  0.00000000  0.69180000  0.30820000  1
  S  S119  1  0.00000000  0.00000000  0.30820000  1
  O  O120  1  0.12580000  0.38712000  0.97930000  1
  O  O121  1  0.38712000  0.12580000  0.97930000  1
  O  O122  1  0.12580000  0.50778000  0.97930000  1
  O  O123  1  0.50778000  0.12580000  0.97930000  1
  O  O124  1  0.38712000  0.50778000  0.97930000  1
  O  O125  1  0.50778000  0.38712000  0.97930000  1
  O  O126  1  0.02070000  0.49222000  0.87420000  1
  O  O127  1  0.49222000  0.02070000  0.87420000  1
  O  O128  1  0.02070000  0.61288000  0.87420000  1
  O  O129  1  0.61288000  0.02070000  0.87420000  1
  O  O130  1  0.49222000  0.61288000  0.87420000  1
  O  O131  1  0.61288000  0.49222000  0.87420000  1
  O  O132  1  0.02070000  0.49222000  0.61288000  1
  O  O133  1  0.49222000  0.02070000  0.61288000  1
  O  O134  1  0.02070000  0.87420000  0.61288000  1
  O  O135  1  0.87420000  0.02070000  0.61288000  1
  O  O136  1  0.49222000  0.87420000  0.61288000  1
  O  O137  1  0.87420000  0.49222000  0.61288000  1
  O  O138  1  0.12580000  0.38712000  0.50778000  1
  O  O139  1  0.38712000  0.12580000  0.50778000  1
  O  O140  1  0.12580000  0.97930000  0.50778000  1
  O  O141  1  0.97930000  0.12580000  0.50778000  1
  O  O142  1  0.38712000  0.97930000  0.50778000  1
  O  O143  1  0.97930000  0.38712000  0.50778000  1
  O  O144  1  0.02070000  0.61288000  0.49222000  1
  O  O145  1  0.61288000  0.02070000  0.49222000  1
  O  O146  1  0.02070000  0.87420000  0.49222000  1
  O  O147  1  0.87420000  0.02070000  0.49222000  1
  O  O148  1  0.61288000  0.87420000  0.49222000  1
  O  O149  1  0.87420000  0.61288000  0.49222000  1
  O  O150  1  0.12580000  0.50778000  0.38712000  1
  O  O151  1  0.50778000  0.12580000  0.38712000  1
  O  O152  1  0.12580000  0.97930000  0.38712000  1
  O  O153  1  0.97930000  0.12580000  0.38712000  1
  O  O154  1  0.50778000  0.97930000  0.38712000  1
  O  O155  1  0.97930000  0.50778000  0.38712000  1
  O  O156  1  0.38712000  0.50778000  0.12580000  1
  O  O157  1  0.50778000  0.38712000  0.12580000  1
  O  O158  1  0.38712000  0.97930000  0.12580000  1
  O  O159  1  0.97930000  0.38712000  0.12580000  1
  O  O160  1  0.50778000  0.97930000  0.12580000  1
  O  O161  1  0.97930000  0.50778000  0.12580000  1
  O  O162  1  0.49222000  0.61288000  0.02070000  1
  O  O163  1  0.61288000  0.49222000  0.02070000  1
  O  O164  1  0.49222000  0.87420000  0.02070000  1
  O  O165  1  0.87420000  0.49222000  0.02070000  1
  O  O166  1  0.61288000  0.87420000  0.02070000  1
  O  O167  1  0.87420000  0.61288000  0.02070000  1
