# generated using pymatgen
data_Zn5H26C45(N5O4)3
_symmetry_space_group_name_H-M   'P 1'
_cell_length_a   26.28037582
_cell_length_b   26.28037582
_cell_length_c   26.28037582
_cell_angle_alpha   99.50788947
_cell_angle_beta   114.67107002
_cell_angle_gamma   114.67107002
_symmetry_Int_Tables_number   1
_chemical_formula_structural   Zn5H26C45(N5O4)3
_chemical_formula_sum   'Zn20 H104 C180 N60 O48'
_cell_volume   13663.73859610
_cell_formula_units_Z   4
loop_
 _symmetry_equiv_pos_site_id
 _symmetry_equiv_pos_as_xyz
  1  'x, y, z'
loop_
 _atom_site_type_symbol
 _atom_site_label
 _atom_site_symmetry_multiplicity
 _atom_site_fract_x
 _atom_site_fract_y
 _atom_site_fract_z
 _atom_site_occupancy
  C  C0  1  0.20090000  0.85340000  0.05270000  1
  C  C1  1  0.80070000  0.35340000  0.15250000  1
  C  C2  1  0.27730000  0.32190000  0.59540000  1
  C  C3  1  0.72650000  0.82190000  0.54460000  1
  C  C4  1  0.21040000  0.66810000  0.86750000  1
  C  C5  1  0.80060000  0.16810000  0.95770000  1
  C  C6  1  0.27030000  0.72120000  0.97630000  1
  C  C7  1  0.74490000  0.22120000  0.95090000  1
  C  C8  1  0.26160000  0.36200000  0.57620000  1
  C  C9  1  0.78580000  0.86200000  0.60040000  1
  C  C10  1  0.26590000  0.71580000  0.92150000  1
  C  C11  1  0.79430000  0.21580000  0.94990000  1
  C  C12  1  0.30250000  0.25870000  0.47940000  1
  C  C13  1  0.77930000  0.75870000  0.45620000  1
  C  C14  1  0.24550000  0.20890000  0.36940000  1
  C  C15  1  0.83950000  0.70890000  0.46340000  1
  C  C16  1  0.32020000  0.86250000  0.08930000  1
  C  C17  1  0.77320000  0.36250000  0.04230000  1
  C  C18  1  0.24830000  0.89680000  0.04730000  1
  C  C19  1  0.84950000  0.39680000  0.14850000  1
  C  C20  1  0.29760000  0.25930000  0.42510000  1
  C  C21  1  0.83420000  0.75930000  0.46170000  1
  C  C22  1  0.30840000  0.90250000  0.06510000  1
  C  C23  1  0.83740000  0.40250000  0.09410000  1
  C  C24  1  0.31460000  0.41920000  0.58080000  1
  C  C25  1  0.83840000  0.91920000  0.60460000  1
  C  C26  1  0.32250000  0.76550000  0.92200000  1
  C  C27  1  0.84350000  0.26550000  0.94300000  1
  C  C28  1  0.34370000  0.31740000  0.42970000  1
  C  C29  1  0.88770000  0.81740000  0.47370000  1
  C  C30  1  0.34630000  0.94290000  0.04720000  1
  C  C31  1  0.89570000  0.44290000  0.09660000  1
  C  C32  1  0.39700000  0.37130000  0.48550000  1
  C  C33  1  0.88580000  0.87130000  0.47430000  1
  C  C34  1  0.34590000  0.99360000  0.03470000  1
  C  C35  1  0.95890000  0.49360000  0.14770000  1
  C  C36  1  0.44010000  0.64880000  0.73290000  1
  C  C37  1  0.91590000  0.14880000  0.70870000  1
  C  C38  1  0.44090000  0.69020000  0.77330000  1
  C  C39  1  0.91690000  0.19020000  0.74930000  1
  C  C40  1  0.91550000  0.27960000  0.83450000  1
  C  C41  1  0.34590000  0.53470000  0.49360000  1
  C  C42  1  0.04110000  0.03470000  0.68880000  1
  C  C43  1  0.24830000  0.54730000  0.39680000  1
  C  C44  1  0.15050000  0.04730000  0.79900000  1
  C  C45  1  0.20090000  0.55270000  0.35340000  1
  C  C46  1  0.19930000  0.05270000  0.85180000  1
  C  C47  1  0.24550000  0.86940000  0.70890000  1
  C  C48  1  0.16050000  0.36940000  0.12390000  1
  C  C49  1  0.21040000  0.36750000  0.16810000  1
  C  C50  1  0.19940000  0.86750000  0.65710000  1
  C  C51  1  0.50000000  0.78320000  0.86880000  1
  C  C52  1  0.91440000  0.28320000  0.78320000  1
  C  C53  1  0.50000000  0.61510000  0.70010000  1
  C  C54  1  0.91500000  0.11510000  0.61510000  1
  C  C55  1  0.50000000  0.65870000  0.74330000  1
  C  C56  1  0.91540000  0.15870000  0.65870000  1
  C  C57  1  0.50000000  0.74150000  0.82370000  1
  C  C58  1  0.91780000  0.24150000  0.74150000  1
  C  C59  1  0.72270000  0.54460000  0.81810000  1
  C  C60  1  0.72650000  0.04460000  0.32190000  1
  C  C61  1  0.34630000  0.54720000  0.44290000  1
  C  C62  1  0.10430000  0.04720000  0.70090000  1
  C  C63  1  0.67980000  0.04230000  0.26910000  1
  C  C64  1  0.77320000  0.54230000  0.86250000  1
  C  C65  1  0.34370000  0.92970000  0.81740000  1
  C  C66  1  0.11230000  0.42970000  0.08600000  1
  C  C67  1  0.29760000  0.92510000  0.75930000  1
  C  C68  1  0.16580000  0.42510000  0.12750000  1
  C  C69  1  0.55490000  0.83450000  0.91900000  1
  C  C70  1  0.30840000  0.56510000  0.40250000  1
  C  C71  1  0.16260000  0.06510000  0.75670000  1
  C  C72  1  0.26590000  0.42150000  0.21580000  1
  C  C73  1  0.20570000  0.92150000  0.65560000  1
  C  C74  1  0.72970000  0.95090000  0.20600000  1
  C  C75  1  0.74490000  0.45090000  0.72120000  1
  C  C76  1  0.26160000  0.07620000  0.86200000  1
  C  C77  1  0.55990000  0.70870000  0.79280000  1
  C  C78  1  0.91590000  0.20870000  0.64880000  1
  C  C79  1  0.21420000  0.57620000  0.31460000  1
  C  C80  1  0.55910000  0.74930000  0.83240000  1
  C  C81  1  0.91690000  0.24930000  0.69020000  1
  C  C82  1  0.31460000  0.08080000  0.91920000  1
  C  C83  1  0.16160000  0.58080000  0.26620000  1
  C  C84  1  0.69750000  0.45620000  0.67690000  1
  C  C85  1  0.77930000  0.95620000  0.25870000  1
  C  C86  1  0.32250000  0.42200000  0.26550000  1
  C  C87  1  0.15650000  0.92200000  0.59950000  1
  C  C88  1  0.60300000  0.47430000  0.58850000  1
  C  C89  1  0.88580000  0.97430000  0.37130000  1
  C  C90  1  0.39700000  0.98550000  0.87130000  1
  C  C91  1  0.11420000  0.48550000  0.08850000  1
  C  C92  1  0.67750000  0.94300000  0.09950000  1
  C  C93  1  0.84350000  0.44300000  0.76550000  1
  C  C94  1  0.30250000  0.97940000  0.75870000  1
  C  C95  1  0.22070000  0.47940000  0.17690000  1
  C  C96  1  0.68540000  0.60460000  0.76620000  1
  C  C97  1  0.83840000  0.10460000  0.41920000  1
  C  C98  1  0.44090000  0.27330000  0.19020000  1
  C  C99  1  0.08310000  0.77330000  0.33240000  1
  C  C100  1  0.44010000  0.23290000  0.14880000  1
  C  C101  1  0.73840000  0.60040000  0.81460000  1
  C  C102  1  0.78580000  0.10040000  0.36200000  1
  C  C103  1  0.08410000  0.73290000  0.29280000  1
  C  C104  1  0.27030000  0.47630000  0.22120000  1
  C  C105  1  0.25510000  0.97630000  0.70600000  1
  C  C106  1  0.73410000  0.94990000  0.15560000  1
  C  C107  1  0.79430000  0.44990000  0.71580000  1
  C  C108  1  0.69160000  0.09410000  0.25670000  1
  C  C109  1  0.83740000  0.59410000  0.90250000  1
  C  C110  1  0.44510000  0.36410000  0.27960000  1
  C  C111  1  0.70240000  0.46170000  0.62750000  1
  C  C112  1  0.83420000  0.96170000  0.25930000  1
  C  C113  1  0.65630000  0.47370000  0.58600000  1
  C  C114  1  0.88770000  0.97370000  0.31740000  1
  C  C115  1  0.32020000  0.58930000  0.36250000  1
  C  C116  1  0.22680000  0.08930000  0.76910000  1
  C  C117  1  0.65370000  0.09660000  0.20090000  1
  C  C118  1  0.89570000  0.59660000  0.94290000  1
  C  C119  1  0.27730000  0.09540000  0.82190000  1
  C  C120  1  0.27350000  0.59540000  0.31810000  1
  C  C121  1  0.50000000  0.32370000  0.24150000  1
  C  C122  1  0.08220000  0.82370000  0.32370000  1
  C  C123  1  0.50000000  0.24330000  0.15870000  1
  C  C124  1  0.08460000  0.74330000  0.24330000  1
  C  C125  1  0.50000000  0.20010000  0.11510000  1
  C  C126  1  0.08500000  0.70010000  0.20010000  1
  C  C127  1  0.50000000  0.36880000  0.28320000  1
  C  C128  1  0.08560000  0.86880000  0.36880000  1
  C  C129  1  0.78960000  0.95770000  0.15710000  1
  C  C130  1  0.80060000  0.45770000  0.66810000  1
  C  C131  1  0.75450000  0.46340000  0.62390000  1
  C  C132  1  0.83950000  0.96340000  0.20890000  1
  C  C133  1  0.79910000  0.15250000  0.35180000  1
  C  C134  1  0.80070000  0.65250000  0.85340000  1
  C  C135  1  0.75170000  0.14850000  0.29900000  1
  C  C136  1  0.84950000  0.64850000  0.89680000  1
  C  C137  1  0.65410000  0.14770000  0.18880000  1
  C  C138  1  0.95890000  0.64770000  0.99360000  1
  C  C139  1  0.08450000  0.91900000  0.36410000  1
  C  C140  1  0.55910000  0.33240000  0.24930000  1
  C  C141  1  0.08310000  0.83240000  0.27330000  1
  C  C142  1  0.55990000  0.29280000  0.20870000  1
  C  C143  1  0.08410000  0.79280000  0.23290000  1
  C  C144  1  0.65410000  0.68880000  0.64770000  1
  C  C145  1  0.04110000  0.18880000  0.53470000  1
  C  C146  1  0.60300000  0.08850000  0.97430000  1
  C  C147  1  0.11420000  0.58850000  0.98550000  1
  C  C148  1  0.65370000  0.70090000  0.59660000  1
  C  C149  1  0.10430000  0.20090000  0.54720000  1
  C  C150  1  0.65630000  0.08600000  0.97370000  1
  C  C151  1  0.11230000  0.58600000  0.92970000  1
  C  C152  1  0.67750000  0.59950000  0.44300000  1
  C  C153  1  0.15650000  0.09950000  0.42200000  1
  C  C154  1  0.68540000  0.26620000  0.10460000  1
  C  C155  1  0.16160000  0.76620000  0.08080000  1
  C  C156  1  0.69160000  0.75670000  0.59410000  1
  C  C157  1  0.16260000  0.25670000  0.56510000  1
  C  C158  1  0.70240000  0.12750000  0.96170000  1
  C  C159  1  0.16580000  0.62750000  0.92510000  1
  C  C160  1  0.75170000  0.79900000  0.64850000  1
  C  C161  1  0.15050000  0.29900000  0.54730000  1
  C  C162  1  0.67980000  0.76910000  0.54230000  1
  C  C163  1  0.22680000  0.26910000  0.58930000  1
  C  C164  1  0.75450000  0.12390000  0.96340000  1
  C  C165  1  0.16050000  0.62390000  0.86940000  1
  C  C166  1  0.69750000  0.17690000  0.95620000  1
  C  C167  1  0.22070000  0.67690000  0.97940000  1
  C  C168  1  0.73410000  0.65560000  0.44990000  1
  C  C169  1  0.20570000  0.15560000  0.42150000  1
  C  C170  1  0.73840000  0.31460000  0.10040000  1
  C  C171  1  0.21420000  0.81460000  0.07620000  1
  C  C172  1  0.72970000  0.70600000  0.45090000  1
  C  C173  1  0.25510000  0.20600000  0.47630000  1
  C  C174  1  0.78960000  0.65710000  0.45770000  1
  C  C175  1  0.19940000  0.15710000  0.36750000  1
  C  C176  1  0.72270000  0.31810000  0.04460000  1
  C  C177  1  0.27350000  0.81810000  0.09540000  1
  C  C178  1  0.79910000  0.85180000  0.65250000  1
  C  C179  1  0.19930000  0.35180000  0.55270000  1
  H  H180  1  0.19010000  0.38060000  0.54050000  1
  H  H181  1  0.84010000  0.88060000  0.69050000  1
  H  H182  1  0.32110000  0.33020000  0.61230000  1
  H  H183  1  0.71790000  0.83020000  0.50910000  1
  H  H184  1  0.20650000  0.66570000  0.82940000  1
  H  H185  1  0.83630000  0.16570000  0.95920000  1
  H  H186  1  0.30830000  0.75600000  0.01290000  1
  H  H187  1  0.74310000  0.25600000  0.94770000  1
  H  H188  1  0.33710000  0.29320000  0.51750000  1
  H  H189  1  0.77570000  0.79320000  0.45610000  1
  H  H190  1  0.24210000  0.21060000  0.33230000  1
  H  H191  1  0.87830000  0.71060000  0.46850000  1
  H  H192  1  0.36140000  0.86560000  0.10200000  1
  H  H193  1  0.76360000  0.36560000  0.00420000  1
  H  H194  1  0.23920000  0.92370000  0.03070000  1
  H  H195  1  0.89300000  0.42370000  0.18450000  1
  H  H196  1  0.40930000  0.37670000  0.52640000  1
  H  H197  1  0.85030000  0.87670000  0.46740000  1
  H  H198  1  0.31890000  0.00800000  0.03690000  1
  H  H199  1  0.97110000  0.50800000  0.18910000  1
  H  H200  1  0.39910000  0.61410000  0.69860000  1
  H  H201  1  0.91550000  0.11410000  0.71500000  1
  H  H202  1  0.40000000  0.74830000  0.83330000  1
  H  H203  1  0.91500000  0.24830000  0.84830000  1
  H  H204  1  0.39980000  0.68360000  0.76660000  1
  H  H205  1  0.91700000  0.18360000  0.78380000  1
  H  H206  1  0.23920000  0.53070000  0.42370000  1
  H  H207  1  0.10700000  0.03070000  0.79150000  1
  H  H208  1  0.31890000  0.53690000  0.50800000  1
  H  H209  1  0.02890000  0.03690000  0.71800000  1
  H  H210  1  0.19010000  0.04050000  0.88060000  1
  H  H211  1  0.15990000  0.54050000  0.35040000  1
  H  H212  1  0.24210000  0.83230000  0.71060000  1
  H  H213  1  0.12170000  0.33230000  0.09020000  1
  H  H214  1  0.20650000  0.32940000  0.16570000  1
  H  H215  1  0.16370000  0.82940000  0.62290000  1
  H  H216  1  0.67890000  0.50910000  0.79120000  1
  H  H217  1  0.71790000  0.00910000  0.33020000  1
  H  H218  1  0.63860000  0.00420000  0.24060000  1
  H  H219  1  0.76360000  0.50420000  0.86560000  1
  H  H220  1  0.69170000  0.94770000  0.20460000  1
  H  H221  1  0.74310000  0.44770000  0.75600000  1
  H  H222  1  0.66290000  0.45610000  0.68040000  1
  H  H223  1  0.77570000  0.95610000  0.29320000  1
  H  H224  1  0.59070000  0.46740000  0.61710000  1
  H  H225  1  0.85030000  0.96740000  0.37670000  1
  H  H226  1  0.39980000  0.26660000  0.18360000  1
  H  H227  1  0.08300000  0.76660000  0.36680000  1
  H  H228  1  0.39910000  0.19860000  0.11410000  1
  H  H229  1  0.08450000  0.69860000  0.29950000  1
  H  H230  1  0.40000000  0.33330000  0.24830000  1
  H  H231  1  0.08500000  0.83330000  0.43330000  1
  H  H232  1  0.60000000  0.84830000  0.93330000  1
  H  H233  1  0.91500000  0.34830000  0.74830000  1
  H  H234  1  0.60090000  0.71500000  0.79950000  1
  H  H235  1  0.91550000  0.21500000  0.61410000  1
  H  H236  1  0.60020000  0.78380000  0.86680000  1
  H  H237  1  0.91700000  0.28380000  0.68360000  1
  H  H238  1  0.40930000  0.02640000  0.87670000  1
  H  H239  1  0.14970000  0.52640000  0.11710000  1
  H  H240  1  0.33710000  0.01750000  0.79320000  1
  H  H241  1  0.22430000  0.51750000  0.18040000  1
  H  H242  1  0.30830000  0.51290000  0.25600000  1
  H  H243  1  0.25690000  0.01290000  0.70460000  1
  H  H244  1  0.36140000  0.60200000  0.36560000  1
  H  H245  1  0.23640000  0.10200000  0.74060000  1
  H  H246  1  0.32110000  0.11230000  0.83020000  1
  H  H247  1  0.28210000  0.61230000  0.29120000  1
  H  H248  1  0.79350000  0.95920000  0.12290000  1
  H  H249  1  0.83630000  0.45920000  0.66570000  1
  H  H250  1  0.75790000  0.46850000  0.59020000  1
  H  H251  1  0.87830000  0.96850000  0.21060000  1
  H  H252  1  0.80990000  0.69050000  0.85040000  1
  H  H253  1  0.84010000  0.19050000  0.38060000  1
  H  H254  1  0.68110000  0.18910000  0.21800000  1
  H  H255  1  0.97110000  0.68910000  0.00800000  1
  H  H256  1  0.76080000  0.18450000  0.29150000  1
  H  H257  1  0.89300000  0.68450000  0.92370000  1
  H  H258  1  0.60020000  0.36680000  0.28380000  1
  H  H259  1  0.08300000  0.86680000  0.26660000  1
  H  H260  1  0.60000000  0.43330000  0.34830000  1
  H  H261  1  0.08500000  0.93330000  0.33330000  1
  H  H262  1  0.60090000  0.29950000  0.21500000  1
  H  H263  1  0.08450000  0.79950000  0.19860000  1
  H  H264  1  0.68110000  0.71800000  0.68910000  1
  H  H265  1  0.02890000  0.21800000  0.53690000  1
  H  H266  1  0.59070000  0.11710000  0.96740000  1
  H  H267  1  0.14970000  0.61710000  0.02640000  1
  H  H268  1  0.76080000  0.79150000  0.68450000  1
  H  H269  1  0.10700000  0.29150000  0.53070000  1
  H  H270  1  0.63860000  0.74060000  0.50420000  1
  H  H271  1  0.23640000  0.24060000  0.60200000  1
  H  H272  1  0.75790000  0.09020000  0.96850000  1
  H  H273  1  0.12170000  0.59020000  0.83230000  1
  H  H274  1  0.66290000  0.18040000  0.95610000  1
  H  H275  1  0.22430000  0.68040000  0.01750000  1
  H  H276  1  0.69170000  0.70460000  0.44770000  1
  H  H277  1  0.25690000  0.20460000  0.51290000  1
  H  H278  1  0.79350000  0.62290000  0.45920000  1
  H  H279  1  0.16370000  0.12290000  0.32940000  1
  H  H280  1  0.67890000  0.29120000  0.00910000  1
  H  H281  1  0.28210000  0.79120000  0.11230000  1
  H  H282  1  0.80990000  0.35040000  0.19050000  1
  H  H283  1  0.15990000  0.85040000  0.04050000  1
  N  N284  1  0.34190000  0.32820000  0.38170000  1
  N  N285  1  0.94650000  0.82820000  0.48630000  1
  N  N286  1  0.39540000  0.94430000  0.04130000  1
  N  N287  1  0.90300000  0.44430000  0.04890000  1
  N  N288  1  0.44510000  0.77960000  0.86410000  1
  N  N289  1  0.42610000  0.41330000  0.46520000  1
  N  N290  1  0.94810000  0.91330000  0.48720000  1
  N  N291  1  0.39190000  0.38660000  0.40330000  1
  N  N292  1  0.98330000  0.88660000  0.49470000  1
  N  N293  1  0.46600000  0.82710000  0.90970000  1
  N  N294  1  0.91740000  0.32710000  0.86110000  1
  N  N295  1  0.42240000  0.98990000  0.02710000  1
  N  N296  1  0.96280000  0.48990000  0.06750000  1
  N  N297  1  0.39010000  0.01730000  0.01940000  1
  N  N298  1  0.99790000  0.51730000  0.12720000  1
  N  N299  1  0.39010000  0.51940000  0.51730000  1
  N  N300  1  0.00210000  0.01940000  0.62930000  1
  N  N301  1  0.34190000  0.88170000  0.82820000  1
  N  N302  1  0.05350000  0.38170000  0.03980000  1
  N  N303  1  0.39190000  0.90330000  0.88660000  1
  N  N304  1  0.01670000  0.40330000  0.01140000  1
  N  N305  1  0.53400000  0.86110000  0.94370000  1
  N  N306  1  0.91740000  0.36110000  0.82710000  1
  N  N307  1  0.42240000  0.52710000  0.48990000  1
  N  N308  1  0.03720000  0.02710000  0.60470000  1
  N  N309  1  0.91550000  0.33450000  0.77960000  1
  N  N310  1  0.42610000  0.96520000  0.91330000  1
  N  N311  1  0.05190000  0.46520000  0.03910000  1
  N  N312  1  0.39540000  0.54130000  0.44430000  1
  N  N313  1  0.09700000  0.04130000  0.64590000  1
  N  N314  1  0.60460000  0.04890000  0.14590000  1
  N  N315  1  0.90300000  0.54890000  0.94430000  1
  N  N316  1  0.57390000  0.48720000  0.53910000  1
  N  N317  1  0.94810000  0.98720000  0.41330000  1
  N  N318  1  0.08450000  0.86410000  0.41900000  1
  N  N319  1  0.57760000  0.06750000  0.10470000  1
  N  N320  1  0.96280000  0.56750000  0.98990000  1
  N  N321  1  0.46600000  0.40970000  0.32710000  1
  N  N322  1  0.08260000  0.90970000  0.44370000  1
  N  N323  1  0.60810000  0.49470000  0.51140000  1
  N  N324  1  0.98330000  0.99470000  0.38660000  1
  N  N325  1  0.65810000  0.48630000  0.53980000  1
  N  N326  1  0.94650000  0.98630000  0.32820000  1
  N  N327  1  0.60990000  0.12720000  0.12930000  1
  N  N328  1  0.99790000  0.62720000  0.01730000  1
  N  N329  1  0.60990000  0.62930000  0.62720000  1
  N  N330  1  0.00210000  0.12930000  0.51940000  1
  N  N331  1  0.57760000  0.60470000  0.56750000  1
  N  N332  1  0.03720000  0.10470000  0.52710000  1
  N  N333  1  0.53400000  0.44370000  0.36110000  1
  N  N334  1  0.08260000  0.94370000  0.40970000  1
  N  N335  1  0.60810000  0.01140000  0.99470000  1
  N  N336  1  0.01670000  0.51140000  0.90330000  1
  N  N337  1  0.57390000  0.03910000  0.98720000  1
  N  N338  1  0.05190000  0.53910000  0.96520000  1
  N  N339  1  0.55490000  0.41900000  0.33450000  1
  N  N340  1  0.60460000  0.64590000  0.54890000  1
  N  N341  1  0.09700000  0.14590000  0.54130000  1
  N  N342  1  0.65810000  0.03980000  0.98630000  1
  N  N343  1  0.05350000  0.53980000  0.88170000  1
  O  O344  1  0.31080000  0.46710000  0.57970000  1
  O  O345  1  0.88740000  0.96710000  0.65630000  1
  O  O346  1  0.36370000  0.42490000  0.58660000  1
  O  O347  1  0.83830000  0.92490000  0.56120000  1
  O  O348  1  0.31280000  0.76380000  0.87120000  1
  O  O349  1  0.89260000  0.26380000  0.95100000  1
  O  O350  1  0.37120000  0.80280000  0.96820000  1
  O  O351  1  0.83460000  0.30280000  0.93160000  1
  O  O352  1  0.44920000  0.57130000  0.65610000  1
  O  O353  1  0.91520000  0.07130000  0.62210000  1
  O  O354  1  0.50000000  0.50640000  0.60040000  1
  O  O355  1  0.90600000  0.00640000  0.50640000  1
  O  O356  1  0.31280000  0.37120000  0.26380000  1
  O  O357  1  0.10740000  0.87120000  0.55840000  1
  O  O358  1  0.50000000  0.93120000  0.01040000  1
  O  O359  1  0.92080000  0.43120000  0.93120000  1
  O  O360  1  0.31080000  0.07970000  0.96710000  1
  O  O361  1  0.11260000  0.57970000  0.26890000  1
  O  O362  1  0.62880000  0.93160000  0.09700000  1
  O  O363  1  0.83460000  0.43160000  0.80280000  1
  O  O364  1  0.55080000  0.62210000  0.70690000  1
  O  O365  1  0.91520000  0.12210000  0.57130000  1
  O  O366  1  0.63630000  0.56120000  0.72290000  1
  O  O367  1  0.83830000  0.06120000  0.42490000  1
  O  O368  1  0.36370000  0.08660000  0.92490000  1
  O  O369  1  0.16170000  0.58660000  0.22290000  1
  O  O370  1  0.44920000  0.15610000  0.07130000  1
  O  O371  1  0.08480000  0.65610000  0.20690000  1
  O  O372  1  0.37120000  0.46820000  0.30280000  1
  O  O373  1  0.16540000  0.96820000  0.59700000  1
  O  O374  1  0.68920000  0.65630000  0.76890000  1
  O  O375  1  0.88740000  0.15630000  0.46710000  1
  O  O376  1  0.50000000  0.51040000  0.43120000  1
  O  O377  1  0.07920000  0.01040000  0.51040000  1
  O  O378  1  0.68720000  0.95100000  0.05840000  1
  O  O379  1  0.89260000  0.45100000  0.76380000  1
  O  O380  1  0.50000000  0.10040000  0.00640000  1
  O  O381  1  0.09400000  0.60040000  0.10040000  1
  O  O382  1  0.55080000  0.20690000  0.12210000  1
  O  O383  1  0.08480000  0.70690000  0.15610000  1
  O  O384  1  0.62880000  0.59700000  0.43160000  1
  O  O385  1  0.16540000  0.09700000  0.46820000  1
  O  O386  1  0.68720000  0.55840000  0.45100000  1
  O  O387  1  0.10740000  0.05840000  0.37120000  1
  O  O388  1  0.63630000  0.22290000  0.06120000  1
  O  O389  1  0.16170000  0.72290000  0.08660000  1
  O  O390  1  0.68920000  0.26890000  0.15630000  1
  O  O391  1  0.11260000  0.76890000  0.07970000  1
  Zn  Zn392  1  0.41830000  0.50039000  0.58833000  1
  Zn  Zn393  1  0.91206000  0.00039000  0.58209000  1
  Zn  Zn394  1  0.41964000  0.85881000  0.93375000  1
  Zn  Zn395  1  0.92506000  0.35881000  0.93917000  1
  Zn  Zn396  1  0.50000000  0.50721000  0.51351000  1
  Zn  Zn397  1  0.99370000  0.00721000  0.50721000  1
  Zn  Zn398  1  0.58170000  0.58209000  0.67003000  1
  Zn  Zn399  1  0.91206000  0.08209000  0.50039000  1
  Zn  Zn400  1  0.41964000  0.43375000  0.35881000  1
  Zn  Zn401  1  0.07494000  0.93375000  0.51411000  1
  Zn  Zn402  1  0.58036000  0.93917000  0.01411000  1
  Zn  Zn403  1  0.92506000  0.43917000  0.85881000  1
  Zn  Zn404  1  0.41830000  0.08833000  0.00039000  1
  Zn  Zn405  1  0.08794000  0.58833000  0.17003000  1
  Zn  Zn406  1  0.50000000  0.01351000  0.00721000  1
  Zn  Zn407  1  0.00630000  0.51351000  0.01351000  1
  Zn  Zn408  1  0.58036000  0.51411000  0.43917000  1
  Zn  Zn409  1  0.07494000  0.01411000  0.43375000  1
  Zn  Zn410  1  0.58170000  0.17003000  0.08209000  1
  Zn  Zn411  1  0.08794000  0.67003000  0.08833000  1
