# generated using pymatgen
data_Eu2Cu3H24(C4O5)6
_symmetry_space_group_name_H-M   'P 1'
_cell_length_a   14.87200000
_cell_length_b   14.87200000
_cell_length_c   15.01900000
_cell_angle_alpha   90.00000000
_cell_angle_beta   90.00000000
_cell_angle_gamma   120.00000000
_symmetry_Int_Tables_number   1
_chemical_formula_structural   Eu2Cu3H24(C4O5)6
_chemical_formula_sum   'Eu4 Cu6 H48 C48 O60'
_cell_volume   2876.80485190
_cell_formula_units_Z   2
loop_
 _symmetry_equiv_pos_site_id
 _symmetry_equiv_pos_as_xyz
  1  'x, y, z'
loop_
 _atom_site_type_symbol
 _atom_site_label
 _atom_site_symmetry_multiplicity
 _atom_site_fract_x
 _atom_site_fract_y
 _atom_site_fract_z
 _atom_site_occupancy
  Eu  Eu0  1  0.66666667  0.33333333  0.75000000  1
  Eu  Eu1  1  0.66666667  0.33333333  0.25000000  1
  Eu  Eu2  1  0.33333333  0.66666667  0.75000000  1
  Eu  Eu3  1  0.33333333  0.66666667  0.25000000  1
  Cu  Cu4  1  1.00000000  0.50000000  1.00000000  1
  Cu  Cu5  1  1.00000000  0.50000000  0.50000000  1
  Cu  Cu6  1  0.50000000  0.50000000  0.00000000  1
  Cu  Cu7  1  0.50000000  0.50000000  0.50000000  1
  Cu  Cu8  1  0.50000000  0.00000000  1.00000000  1
  Cu  Cu9  1  0.50000000  0.00000000  0.50000000  1
  H  H10  1  0.91160000  0.28560000  0.76420000  1
  H  H11  1  0.91160000  0.28560000  0.23580000  1
  H  H12  1  0.91160000  0.62600000  0.73580000  1
  H  H13  1  0.91160000  0.62600000  0.26420000  1
  H  H14  1  0.84190000  0.20780000  0.83890000  1
  H  H15  1  0.84190000  0.20780000  0.16110000  1
  H  H16  1  0.84190000  0.63410000  0.66110000  1
  H  H17  1  0.84190000  0.63410000  0.33890000  1
  H  H18  1  0.79220000  0.15810000  0.66110000  1
  H  H19  1  0.79220000  0.15810000  0.33890000  1
  H  H20  1  0.79220000  0.63410000  0.83890000  1
  H  H21  1  0.79220000  0.63410000  0.16110000  1
  H  H22  1  0.71440000  0.08840000  0.73580000  1
  H  H23  1  0.71440000  0.08840000  0.26420000  1
  H  H24  1  0.71440000  0.62600000  0.76420000  1
  H  H25  1  0.71440000  0.62600000  0.23580000  1
  H  H26  1  0.63410000  0.79220000  0.66110000  1
  H  H27  1  0.63410000  0.79220000  0.33890000  1
  H  H28  1  0.63410000  0.84190000  0.83890000  1
  H  H29  1  0.63410000  0.84190000  0.16110000  1
  H  H30  1  0.62600000  0.71440000  0.73580000  1
  H  H31  1  0.62600000  0.71440000  0.26420000  1
  H  H32  1  0.62600000  0.91160000  0.76420000  1
  H  H33  1  0.62600000  0.91160000  0.23580000  1
  H  H34  1  0.37400000  0.08840000  0.76420000  1
  H  H35  1  0.37400000  0.08840000  0.23580000  1
  H  H36  1  0.37400000  0.28560000  0.73580000  1
  H  H37  1  0.37400000  0.28560000  0.26420000  1
  H  H38  1  0.36590000  0.15810000  0.83890000  1
  H  H39  1  0.36590000  0.15810000  0.16110000  1
  H  H40  1  0.36590000  0.20780000  0.66110000  1
  H  H41  1  0.36590000  0.20780000  0.33890000  1
  H  H42  1  0.28560000  0.37400000  0.76420000  1
  H  H43  1  0.28560000  0.37400000  0.23580000  1
  H  H44  1  0.28560000  0.91160000  0.73580000  1
  H  H45  1  0.28560000  0.91160000  0.26420000  1
  H  H46  1  0.20780000  0.36590000  0.83890000  1
  H  H47  1  0.20780000  0.36590000  0.16110000  1
  H  H48  1  0.20780000  0.84190000  0.66110000  1
  H  H49  1  0.20780000  0.84190000  0.33890000  1
  H  H50  1  0.15810000  0.36590000  0.66110000  1
  H  H51  1  0.15810000  0.36590000  0.33890000  1
  H  H52  1  0.15810000  0.79220000  0.83890000  1
  H  H53  1  0.15810000  0.79220000  0.16110000  1
  H  H54  1  0.08840000  0.37400000  0.73580000  1
  H  H55  1  0.08840000  0.37400000  0.26420000  1
  H  H56  1  0.08840000  0.71440000  0.76420000  1
  H  H57  1  0.08840000  0.71440000  0.23580000  1
  C  C58  1  0.87010000  0.35560000  0.86030000  1
  C  C59  1  0.87010000  0.35560000  0.13970000  1
  C  C60  1  0.87010000  0.51450000  0.63970000  1
  C  C61  1  0.87010000  0.51450000  0.36030000  1
  C  C62  1  0.85180000  0.26570000  0.80220000  1
  C  C63  1  0.85180000  0.26570000  0.19780000  1
  C  C64  1  0.85180000  0.58610000  0.69780000  1
  C  C65  1  0.85180000  0.58610000  0.30220000  1
  C  C66  1  0.73430000  0.14820000  0.69780000  1
  C  C67  1  0.73430000  0.14820000  0.30220000  1
  C  C68  1  0.73430000  0.58610000  0.80220000  1
  C  C69  1  0.73430000  0.58610000  0.19780000  1
  C  C70  1  0.64440000  0.12990000  0.63970000  1
  C  C71  1  0.64440000  0.12990000  0.36030000  1
  C  C72  1  0.64440000  0.51450000  0.86030000  1
  C  C73  1  0.64440000  0.51450000  0.13970000  1
  C  C74  1  0.58610000  0.73430000  0.69780000  1
  C  C75  1  0.58610000  0.73430000  0.30220000  1
  C  C76  1  0.58610000  0.85180000  0.80220000  1
  C  C77  1  0.58610000  0.85180000  0.19780000  1
  C  C78  1  0.51450000  0.64440000  0.63970000  1
  C  C79  1  0.51450000  0.64440000  0.36030000  1
  C  C80  1  0.51450000  0.87010000  0.86030000  1
  C  C81  1  0.51450000  0.87010000  0.13970000  1
  C  C82  1  0.48550000  0.12990000  0.86030000  1
  C  C83  1  0.48550000  0.12990000  0.13970000  1
  C  C84  1  0.48550000  0.35560000  0.63970000  1
  C  C85  1  0.48550000  0.35560000  0.36030000  1
  C  C86  1  0.41390000  0.14820000  0.80220000  1
  C  C87  1  0.41390000  0.14820000  0.19780000  1
  C  C88  1  0.41390000  0.26570000  0.69780000  1
  C  C89  1  0.41390000  0.26570000  0.30220000  1
  C  C90  1  0.35560000  0.48550000  0.86030000  1
  C  C91  1  0.35560000  0.48550000  0.13970000  1
  C  C92  1  0.35560000  0.87010000  0.63970000  1
  C  C93  1  0.35560000  0.87010000  0.36030000  1
  C  C94  1  0.26570000  0.41390000  0.80220000  1
  C  C95  1  0.26570000  0.41390000  0.19780000  1
  C  C96  1  0.26570000  0.85180000  0.69780000  1
  C  C97  1  0.26570000  0.85180000  0.30220000  1
  C  C98  1  0.14820000  0.41390000  0.69780000  1
  C  C99  1  0.14820000  0.41390000  0.30220000  1
  C  C100  1  0.14820000  0.73430000  0.80220000  1
  C  C101  1  0.14820000  0.73430000  0.19780000  1
  C  C102  1  0.12990000  0.48550000  0.63970000  1
  C  C103  1  0.12990000  0.48550000  0.36030000  1
  C  C104  1  0.12990000  0.64440000  0.86030000  1
  C  C105  1  0.12990000  0.64440000  0.13970000  1
  O  O106  1  0.94910000  0.39200000  0.90910000  1
  O  O107  1  0.94910000  0.39200000  0.09090000  1
  O  O108  1  0.94910000  0.55710000  0.59090000  1
  O  O109  1  0.94910000  0.55710000  0.40910000  1
  O  O110  1  0.80600000  0.38640000  0.85720000  1
  O  O111  1  0.80600000  0.38640000  0.14280000  1
  O  O112  1  0.80600000  0.41960000  0.64280000  1
  O  O113  1  0.80600000  0.41960000  0.35720000  1
  O  O114  1  0.76340000  0.23660000  0.75000000  1
  O  O115  1  0.76340000  0.23660000  0.25000000  1
  O  O116  1  0.76340000  0.52680000  0.75000000  1
  O  O117  1  0.76340000  0.52680000  0.25000000  1
  O  O118  1  0.61360000  0.19400000  0.64280000  1
  O  O119  1  0.61360000  0.19400000  0.35720000  1
  O  O120  1  0.61360000  0.41960000  0.85720000  1
  O  O121  1  0.61360000  0.41960000  0.14280000  1
  O  O122  1  0.60800000  0.05090000  0.59090000  1
  O  O123  1  0.60800000  0.05090000  0.40910000  1
  O  O124  1  0.60800000  0.55710000  0.90910000  1
  O  O125  1  0.60800000  0.55710000  0.09090000  1
  O  O126  1  0.58040000  0.19400000  0.85720000  1
  O  O127  1  0.58040000  0.19400000  0.14280000  1
  O  O128  1  0.58040000  0.38640000  0.64280000  1
  O  O129  1  0.58040000  0.38640000  0.35720000  1
  O  O130  1  0.55710000  0.60800000  0.59090000  1
  O  O131  1  0.55710000  0.60800000  0.40910000  1
  O  O132  1  0.55710000  0.94910000  0.90910000  1
  O  O133  1  0.55710000  0.94910000  0.09090000  1
  O  O134  1  0.52680000  0.76340000  0.75000000  1
  O  O135  1  0.52680000  0.76340000  0.25000000  1
  O  O136  1  0.47320000  0.23660000  0.75000000  1
  O  O137  1  0.47320000  0.23660000  0.25000000  1
  O  O138  1  0.44290000  0.05090000  0.90910000  1
  O  O139  1  0.44290000  0.05090000  0.09090000  1
  O  O140  1  0.44290000  0.39200000  0.59090000  1
  O  O141  1  0.44290000  0.39200000  0.40910000  1
  O  O142  1  0.41960000  0.61360000  0.64280000  1
  O  O143  1  0.41960000  0.61360000  0.35720000  1
  O  O144  1  0.41960000  0.80600000  0.85720000  1
  O  O145  1  0.41960000  0.80600000  0.14280000  1
  O  O146  1  0.39200000  0.44290000  0.90910000  1
  O  O147  1  0.39200000  0.44290000  0.09090000  1
  O  O148  1  0.39200000  0.94910000  0.59090000  1
  O  O149  1  0.39200000  0.94910000  0.40910000  1
  O  O150  1  0.38640000  0.58040000  0.85720000  1
  O  O151  1  0.38640000  0.58040000  0.14280000  1
  O  O152  1  0.38640000  0.80600000  0.64280000  1
  O  O153  1  0.38640000  0.80600000  0.35720000  1
  O  O154  1  0.23660000  0.47320000  0.75000000  1
  O  O155  1  0.23660000  0.47320000  0.25000000  1
  O  O156  1  0.23660000  0.76340000  0.75000000  1
  O  O157  1  0.23660000  0.76340000  0.25000000  1
  O  O158  1  0.19400000  0.58040000  0.64280000  1
  O  O159  1  0.19400000  0.58040000  0.35720000  1
  O  O160  1  0.19400000  0.61360000  0.85720000  1
  O  O161  1  0.19400000  0.61360000  0.14280000  1
  O  O162  1  0.05090000  0.44290000  0.59090000  1
  O  O163  1  0.05090000  0.44290000  0.40910000  1
  O  O164  1  0.05090000  0.60800000  0.90910000  1
  O  O165  1  0.05090000  0.60800000  0.09090000  1
