# generated using pymatgen
data_NiH3C8O5
_symmetry_space_group_name_H-M   'P 1'
_cell_length_a   12.08130000
_cell_length_b   12.31565242
_cell_length_c   12.31565242
_cell_angle_alpha   76.07945463
_cell_angle_beta   60.62749723
_cell_angle_gamma   60.62749723
_symmetry_Int_Tables_number   1
_chemical_formula_structural   NiH3C8O5
_chemical_formula_sum   'Ni4 H12 C32 O20'
_cell_volume   1391.59471295
_cell_formula_units_Z   4
loop_
 _symmetry_equiv_pos_site_id
 _symmetry_equiv_pos_as_xyz
  1  'x, y, z'
loop_
 _atom_site_type_symbol
 _atom_site_label
 _atom_site_symmetry_multiplicity
 _atom_site_fract_x
 _atom_site_fract_y
 _atom_site_fract_z
 _atom_site_occupancy
  C  C0  1  0.93860000  0.00000000  0.00000000  1
  C  C1  1  0.70550000  0.00000000  0.00000000  1
  C  C2  1  0.29450000  0.00000000  0.00000000  1
  C  C3  1  0.06140000  0.00000000  0.00000000  1
  C  C4  1  0.81140000  0.50000000  0.50000000  1
  C  C5  1  0.68860000  0.50000000  0.50000000  1
  C  C6  1  0.45550000  0.50000000  0.50000000  1
  C  C7  1  0.04450000  0.50000000  0.50000000  1
  C  C8  1  0.16020000  0.89330000  0.03250000  1
  C  C9  1  0.66400000  0.53250000  0.39330000  1
  C  C10  1  0.27580000  0.89170000  0.02870000  1
  C  C11  1  0.55380000  0.52870000  0.39170000  1
  C  C12  1  0.83250000  0.89170000  0.97130000  1
  C  C13  1  0.05450000  0.47130000  0.39170000  1
  C  C14  1  0.94650000  0.89330000  0.96750000  1
  C  C15  1  0.94270000  0.46750000  0.39330000  1
  C  C16  1  0.38680000  0.76990000  0.05010000  1
  C  C17  1  0.54320000  0.55010000  0.26990000  1
  C  C18  1  0.84330000  0.76990000  0.94990000  1
  C  C19  1  0.18690000  0.44990000  0.26990000  1
  C  C20  1  0.90670000  0.55010000  0.73010000  1
  C  C21  1  0.56310000  0.23010000  0.05010000  1
  C  C22  1  0.36320000  0.44990000  0.73010000  1
  C  C23  1  0.20680000  0.23010000  0.94990000  1
  C  C24  1  0.80350000  0.53250000  0.60670000  1
  C  C25  1  0.80730000  0.10670000  0.03250000  1
  C  C26  1  0.91750000  0.52870000  0.60830000  1
  C  C27  1  0.69550000  0.10830000  0.02870000  1
  C  C28  1  0.47420000  0.47130000  0.60830000  1
  C  C29  1  0.19620000  0.10830000  0.97130000  1
  C  C30  1  0.58980000  0.46750000  0.60670000  1
  C  C31  1  0.08600000  0.10670000  0.96750000  1
  H  H32  1  0.62850000  0.00000000  0.00000000  1
  H  H33  1  0.37150000  0.00000000  0.00000000  1
  H  H34  1  0.37850000  0.50000000  0.50000000  1
  H  H35  1  0.12150000  0.50000000  0.50000000  1
  H  H36  1  0.14620000  0.82170000  0.05730000  1
  H  H37  1  0.72480000  0.55730000  0.32170000  1
  H  H38  1  0.03210000  0.82170000  0.94270000  1
  H  H39  1  0.95350000  0.44270000  0.32170000  1
  H  H40  1  0.71790000  0.55730000  0.67830000  1
  H  H41  1  0.79650000  0.17830000  0.05730000  1
  H  H42  1  0.60380000  0.44270000  0.67830000  1
  H  H43  1  0.02520000  0.17830000  0.94270000  1
  Ni  Ni44  1  0.68964000  0.62072000  1.00000000  1
  Ni  Ni45  1  0.43964000  0.50000000  0.12072000  1
  Ni  Ni46  1  0.06036000  0.50000000  0.87928000  1
  Ni  Ni47  1  0.31036000  0.37928000  1.00000000  1
  O  O48  1  0.34470000  0.69140000  0.11760000  1
  O  O49  1  0.59630000  0.61760000  0.19140000  1
  O  O50  1  0.72910000  0.75940000  0.00600000  1
  O  O51  1  0.25550000  0.50600000  0.25940000  1
  O  O52  1  0.51150000  0.75940000  0.99400000  1
  O  O53  1  0.48510000  0.49400000  0.25940000  1
  O  O54  1  0.96390000  0.69140000  0.88240000  1
  O  O55  1  0.21230000  0.38240000  0.19140000  1
  O  O56  1  0.11140000  0.51360000  0.01360000  1
  O  O57  1  0.37500000  0.51360000  0.98640000  1
  O  O58  1  0.87500000  0.48640000  0.01360000  1
  O  O59  1  0.63860000  0.48640000  0.98640000  1
  O  O60  1  0.78610000  0.61760000  0.80860000  1
  O  O61  1  0.53770000  0.30860000  0.11760000  1
  O  O62  1  0.23850000  0.50600000  0.74060000  1
  O  O63  1  0.26490000  0.24060000  0.00600000  1
  O  O64  1  0.02090000  0.49400000  0.74060000  1
  O  O65  1  0.49450000  0.24060000  0.99400000  1
  O  O66  1  0.40530000  0.38240000  0.80860000  1
  O  O67  1  0.15370000  0.30860000  0.88240000  1
