# generated using pymatgen
data_Mn4Cd3H57C98N7(ClO14)2
_symmetry_space_group_name_H-M   'P 1'
_cell_length_a   19.83400000
_cell_length_b   20.22400000
_cell_length_c   20.28400000
_cell_angle_alpha   87.48000000
_cell_angle_beta   64.41800000
_cell_angle_gamma   82.89600000
_symmetry_Int_Tables_number   1
_chemical_formula_structural   Mn4Cd3H57C98N7(ClO14)2
_chemical_formula_sum   'Mn8 Cd6 H114 C196 N14 Cl4 O56'
_cell_volume   7282.01008140
_cell_formula_units_Z   2
loop_
 _symmetry_equiv_pos_site_id
 _symmetry_equiv_pos_as_xyz
  1  'x, y, z'
loop_
 _atom_site_type_symbol
 _atom_site_label
 _atom_site_symmetry_multiplicity
 _atom_site_fract_x
 _atom_site_fract_y
 _atom_site_fract_z
 _atom_site_occupancy
  Mn  Mn0  1  0.10390000  0.87243000  0.71340000  1
  Mn  Mn1  1  0.17462000  0.95716000  0.54331000  1
  Mn  Mn2  1  0.28400000  0.53709000  0.04658000  1
  Mn  Mn3  1  0.32354000  0.04578000  0.46198000  1
  Mn  Mn4  1  0.67646000  0.95422000  0.53802000  1
  Mn  Mn5  1  0.71600000  0.46291000  0.95342000  1
  Mn  Mn6  1  0.82538000  0.04284000  0.45669000  1
  Mn  Mn7  1  0.89610000  0.12757000  0.28660000  1
  Cd  Cd8  1  0.05805000  0.48219000  0.46921000  1
  Cd  Cd9  1  0.21907000  0.45948000  0.94991000  1
  Cd  Cd10  1  0.44430000  0.51675000  0.52983000  1
  Cd  Cd11  1  0.55570000  0.48325000  0.47017000  1
  Cd  Cd12  1  0.78093000  0.54052000  0.05009000  1
  Cd  Cd13  1  0.94195000  0.51781000  0.53079000  1
  H  H14  1  0.00290000  0.68950000  0.31530000  1
  H  H15  1  0.01160000  0.44670000  0.91970000  1
  H  H16  1  0.01260000  0.60250000  0.94540000  1
  H  H17  1  0.01830000  0.19440000  0.32110000  1
  H  H18  1  0.02240000  0.40760000  0.73370000  1
  H  H19  1  0.03350000  0.96820000  0.40960000  1
  H  H20  1  0.03980000  0.12100000  0.60560000  1
  H  H21  1  0.05080000  0.42320000  0.11040000  1
  H  H22  1  0.05220000  0.91920000  0.16410000  1
  H  H23  1  0.05330000  0.73090000  0.55360000  1
  H  H24  1  0.05720000  0.66220000  0.65360000  1
  H  H25  1  0.06050000  0.06600000  0.46010000  1
  H  H26  1  0.06240000  0.81230000  0.11840000  1
  H  H27  1  0.06520000  0.45180000  0.21330000  1
  H  H28  1  0.06800000  0.94940000  0.32460000  1
  H  H29  1  0.06960000  0.23290000  0.57550000  1
  H  H30  1  0.08800000  0.69070000  0.13550000  1
  H  H31  1  0.08900000  0.63430000  0.89800000  1
  H  H32  1  0.09200000  0.55790000  0.92210000  1
  H  H33  1  0.11300000  0.21290000  0.19340000  1
  H  H34  1  0.12180000  0.94600000  0.36520000  1
  H  H35  1  0.12790000  0.22400000  0.70470000  1
  H  H36  1  0.13330000  0.27430000  0.81920000  1
  H  H37  1  0.13810000  0.11720000  0.65890000  1
  H  H38  1  0.14120000  0.72920000  0.41460000  1
  H  H39  1  0.15170000  0.29640000  0.10580000  1
  H  H40  1  0.15830000  0.54090000  0.66666667  1
  H  H41  1  0.16100000  0.84060000  0.38650000  1
  H  H42  1  0.16700000  0.57120000  0.77130000  1
  H  H43  1  0.18160000  0.30980000  0.32100000  1
  H  H44  1  0.21260000  0.19090000  0.34270000  1
  H  H45  1  0.21800000  0.39410000  0.23400000  1
  H  H46  1  0.26860000  0.79900000  0.39030000  1
  H  H47  1  0.28300000  0.60970000  0.76650000  1
  H  H48  1  0.28530000  0.81490000  0.66430000  1
  H  H49  1  0.31820000  0.69680000  0.68130000  1
  H  H50  1  0.32680000  0.71000000  0.30540000  1
  H  H51  1  0.33720000  0.39620000  0.23710000  1
  H  H52  1  0.34690000  0.68090000  0.18110000  1
  H  H53  1  0.35100000  0.42010000  0.34240000  1
  H  H54  1  0.35640000  0.69820000  0.89190000  1
  H  H55  1  0.38070000  0.37890000  0.11400000  1
  H  H56  1  0.40060000  0.78250000  0.80330000  1
  H  H57  1  0.43430000  0.94650000  0.55180000  1
  H  H58  1  0.43580000  0.43230000  0.06750000  1
  H  H59  1  0.43690000  0.90710000  0.26030000  1
  H  H60  1  0.44240000  0.52980000  0.79170000  1
  H  H61  1  0.44560000  0.29960000  0.83300000  1
  H  H62  1  0.45370000  0.32310000  0.35000000  1
  H  H63  1  0.45460000  0.26270000  0.45740000  1
  H  H64  1  0.45990000  0.56140000  0.88950000  1
  H  H65  1  0.46950000  0.35730000  0.07340000  1
  H  H66  1  0.46970000  0.58080000  0.26870000  1
  H  H67  1  0.47030000  0.44690000  0.94750000  1
  H  H68  1  0.48080000  0.81480000  0.68350000  1
  H  H69  1  0.48210000  0.68210000  0.31840000  1
  H  H70  1  0.49300000  0.82050000  0.18090000  1
  H  H71  1  0.50700000  0.17950000  0.81910000  1
  H  H72  1  0.51790000  0.31790000  0.68160000  1
  H  H73  1  0.51920000  0.18520000  0.31650000  1
  H  H74  1  0.52970000  0.55310000  0.05250000  1
  H  H75  1  0.53030000  0.41920000  0.73130000  1
  H  H76  1  0.53050000  0.64270000  0.92660000  1
  H  H77  1  0.54010000  0.43860000  0.11050000  1
  H  H78  1  0.54540000  0.73730000  0.54260000  1
  H  H79  1  0.54630000  0.67690000  0.65000000  1
  H  H80  1  0.55440000  0.70040000  0.16700000  1
  H  H81  1  0.55760000  0.47020000  0.20830000  1
  H  H82  1  0.56310000  0.09290000  0.73970000  1
  H  H83  1  0.56420000  0.56770000  0.93250000  1
  H  H84  1  0.56570000  0.05350000  0.44820000  1
  H  H85  1  0.59940000  0.21750000  0.19670000  1
  H  H86  1  0.61930000  0.62110000  0.88600000  1
  H  H87  1  0.64360000  0.30180000  0.10810000  1
  H  H88  1  0.64900000  0.57990000  0.65760000  1
  H  H89  1  0.65310000  0.31910000  0.81890000  1
  H  H90  1  0.66280000  0.60380000  0.76290000  1
  H  H91  1  0.67320000  0.29000000  0.69460000  1
  H  H92  1  0.68180000  0.30320000  0.31870000  1
  H  H93  1  0.71470000  0.18510000  0.33570000  1
  H  H94  1  0.71700000  0.39030000  0.23350000  1
  H  H95  1  0.73140000  0.20100000  0.60970000  1
  H  H96  1  0.78200000  0.60590000  0.76600000  1
  H  H97  1  0.78740000  0.80910000  0.65730000  1
  H  H98  1  0.81840000  0.69020000  0.67900000  1
  H  H99  1  0.83300000  0.42880000  0.22870000  1
  H  H100  1  0.83900000  0.15940000  0.61350000  1
  H  H101  1  0.84170000  0.45910000  0.33333333  1
  H  H102  1  0.84830000  0.70360000  0.89420000  1
  H  H103  1  0.85880000  0.27080000  0.58540000  1
  H  H104  1  0.86190000  0.88280000  0.34110000  1
  H  H105  1  0.86670000  0.72570000  0.18080000  1
  H  H106  1  0.87210000  0.77600000  0.29530000  1
  H  H107  1  0.87820000  0.05400000  0.63480000  1
  H  H108  1  0.88700000  0.78710000  0.80660000  1
  H  H109  1  0.90800000  0.44210000  0.07790000  1
  H  H110  1  0.91100000  0.36570000  0.10200000  1
  H  H111  1  0.91200000  0.30930000  0.86450000  1
  H  H112  1  0.93040000  0.76710000  0.42450000  1
  H  H113  1  0.93200000  0.05060000  0.67540000  1
  H  H114  1  0.93480000  0.54820000  0.78670000  1
  H  H115  1  0.93760000  0.18770000  0.88160000  1
  H  H116  1  0.93950000  0.93400000  0.53990000  1
  H  H117  1  0.94280000  0.33780000  0.34640000  1
  H  H118  1  0.94670000  0.26910000  0.44640000  1
  H  H119  1  0.94780000  0.08080000  0.83590000  1
  H  H120  1  0.94920000  0.57680000  0.88960000  1
  H  H121  1  0.96020000  0.87900000  0.39440000  1
  H  H122  1  0.96650000  0.03180000  0.59040000  1
  H  H123  1  0.97760000  0.59240000  0.26630000  1
  H  H124  1  0.98170000  0.80560000  0.67890000  1
  H  H125  1  0.98740000  0.39750000  0.05460000  1
  H  H126  1  0.98840000  0.55330000  0.08030000  1
  H  H127  1  0.99710000  0.31050000  0.68470000  1
  C  C128  1  0.00140000  0.35370000  0.66410000  1
  C  C129  1  0.00290000  0.15270000  0.60040000  1
  C  C130  1  0.00700000  0.62530000  0.40210000  1
  C  C131  1  0.00820000  0.43140000  0.15600000  1
  C  C132  1  0.01460000  0.40480000  0.89860000  1
  C  C133  1  0.01570000  0.89010000  0.19070000  1
  C  C134  1  0.01620000  0.40620000  0.68990000  1
  C  C135  1  0.01620000  0.44840000  0.21750000  1
  C  C136  1  0.02150000  0.46150000  0.63980000  1
  C  C137  1  0.02170000  0.82660000  0.16360000  1
  C  C138  1  0.02290000  0.21950000  0.58210000  1
  C  C139  1  0.02330000  0.28210000  0.83700000  1
  C  C140  1  0.02480000  0.66390000  0.44560000  1
  C  C141  1  0.02590000  0.12700000  0.39450000  1
  C  C142  1  0.03180000  0.21590000  0.79750000  1
  C  C143  1  0.03610000  0.64480000  0.51080000  1
  C  C144  1  0.03630000  0.52610000  0.64720000  1
  C  C145  1  0.03770000  0.73570000  0.42500000  1
  C  C146  1  0.03780000  0.58090000  0.60160000  1
  C  C147  1  0.04390000  0.08900000  0.74310000  1
  C  C148  1  0.04450000  0.53940000  0.71580000  1
  C  C149  1  0.04460000  0.67690000  0.13420000  1
  C  C150  1  0.04770000  0.68480000  0.55920000  1
  C  C151  1  0.04810000  0.89870000  0.57860000  1
  C  C152  1  0.04890000  0.61550000  0.10340000  1
  C  C153  1  0.04940000  0.02070000  0.71330000  1
  C  C154  1  0.04950000  0.64770000  0.61370000  1
  C  C155  1  0.05000000  0.17600000  0.34310000  1
  C  C156  1  0.06390000  0.59380000  0.90680000  1
  C  C157  1  0.07160000  0.93900000  0.37070000  1
  C  C158  1  0.07540000  0.10080000  0.42550000  1
  C  C159  1  0.08250000  0.36370000  0.86970000  1
  C  C160  1  0.08690000  0.30240000  0.83890000  1
  C  C161  1  0.09130000  0.19490000  0.73130000  1
  C  C162  1  0.09740000  0.13150000  0.70410000  1
  C  C163  1  0.10160000  0.75920000  0.41200000  1
  C  C164  1  0.11430000  0.82600000  0.39460000  1
  C  C165  1  0.11450000  0.54740000  0.71170000  1
  C  C166  1  0.11910000  0.56480000  0.77440000  1
  C  C167  1  0.12130000  0.20030000  0.32180000  1
  C  C168  1  0.12370000  0.57300000  0.06870000  1
  C  C169  1  0.13520000  0.24910000  0.20120000  1
  C  C170  1  0.14170000  0.12250000  0.40840000  1
  C  C171  1  0.14520000  0.25350000  0.26540000  1
  C  C172  1  0.15190000  0.38480000  0.87140000  1
  C  C173  1  0.15880000  0.29910000  0.14900000  1
  C  C174  1  0.16570000  0.17460000  0.35490000  1
  C  C175  1  0.17580000  0.30700000  0.27710000  1
  C  C176  1  0.19120000  0.35110000  0.15770000  1
  C  C177  1  0.19620000  0.09110000  0.43890000  1
  C  C178  1  0.19820000  0.35670000  0.22520000  1
  C  C179  1  0.21650000  0.40430000  0.10010000  1
  C  C180  1  0.28780000  0.59320000  0.89580000  1
  C  C181  1  0.29150000  0.91970000  0.58210000  1
  C  C182  1  0.30460000  0.64590000  0.77520000  1
  C  C183  1  0.31230000  0.91780000  0.39270000  1
  C  C184  1  0.31430000  0.80320000  0.34810000  1
  C  C185  1  0.31520000  0.64810000  0.83910000  1
  C  C186  1  0.32610000  0.69740000  0.72420000  1
  C  C187  1  0.33050000  0.83370000  0.65350000  1
  C  C188  1  0.34740000  0.89100000  0.60790000  1
  C  C189  1  0.34860000  0.75070000  0.29650000  1
  C  C190  1  0.34890000  0.69740000  0.84870000  1
  C  C191  1  0.34940000  0.86230000  0.33580000  1
  C  C192  1  0.35990000  0.75070000  0.73710000  1
  C  C193  1  0.36720000  0.40840000  0.91550000  1
  C  C194  1  0.37420000  0.74940000  0.79630000  1
  C  C195  1  0.37930000  0.80540000  0.68200000  1
  C  C196  1  0.38360000  0.40940000  0.23210000  1
  C  C197  1  0.38470000  0.58070000  0.08670000  1
  C  C198  1  0.39090000  0.42470000  0.29540000  1
  C  C199  1  0.39930000  0.66666667  0.16200000  1
  C  C200  1  0.41230000  0.75680000  0.23410000  1
  C  C201  1  0.41470000  0.86660000  0.27060000  1
  C  C202  1  0.41990000  0.91170000  0.58640000  1
  C  C203  1  0.43040000  0.39360000  0.09950000  1
  C  C204  1  0.43060000  0.61200000  0.11280000  1
  C  C205  1  0.44560000  0.70010000  0.18320000  1
  C  C206  1  0.44700000  0.37810000  0.89060000  1
  C  C207  1  0.44700000  0.81650000  0.22270000  1
  C  C208  1  0.44780000  0.83230000  0.66260000  1
  C  C209  1  0.45460000  0.09130000  0.41320000  1
  C  C210  1  0.45700000  0.44660000  0.28860000  1
  C  C211  1  0.45880000  0.34120000  0.38980000  1
  C  C212  1  0.46040000  0.30860000  0.44800000  1
  C  C213  1  0.46650000  0.40890000  0.40020000  1
  C  C214  1  0.46730000  0.46310000  0.35030000  1
  C  C215  1  0.46760000  0.88580000  0.61170000  1
  C  C216  1  0.47190000  0.35230000  0.49340000  1
  C  C217  1  0.47630000  0.58420000  0.31210000  1
  C  C218  1  0.47760000  0.32280000  0.84530000  1
  C  C219  1  0.47780000  0.53070000  0.35910000  1
  C  C220  1  0.48140000  0.33740000  0.55780000  1
  C  C221  1  0.48520000  0.63880000  0.33770000  1
  C  C222  1  0.48770000  0.54690000  0.78360000  1
  C  C223  1  0.49190000  0.41050000  0.91400000  1
  C  C224  1  0.49860000  0.56500000  0.84160000  1
  C  C225  1  0.49960000  0.37730000  0.60070000  1
  C  C226  1  0.50040000  0.62270000  0.39930000  1
  C  C227  1  0.50140000  0.43500000  0.15840000  1
  C  C228  1  0.50810000  0.58950000  0.08600000  1
  C  C229  1  0.51230000  0.45310000  0.21640000  1
  C  C230  1  0.51480000  0.36120000  0.66230000  1
  C  C231  1  0.51860000  0.66260000  0.44220000  1
  C  C232  1  0.52220000  0.46930000  0.64090000  1
  C  C233  1  0.52240000  0.67720000  0.15470000  1
  C  C234  1  0.52370000  0.41580000  0.68790000  1
  C  C235  1  0.52810000  0.64770000  0.50660000  1
  C  C236  1  0.53240000  0.11420000  0.38830000  1
  C  C237  1  0.53270000  0.53690000  0.64970000  1
  C  C238  1  0.53350000  0.59110000  0.59980000  1
  C  C239  1  0.53960000  0.69140000  0.55200000  1
  C  C240  1  0.54120000  0.65880000  0.61020000  1
  C  C241  1  0.54300000  0.55340000  0.71140000  1
  C  C242  1  0.54540000  0.90870000  0.58680000  1
  C  C243  1  0.55220000  0.16770000  0.33740000  1
  C  C244  1  0.55300000  0.18350000  0.77730000  1
  C  C245  1  0.55300000  0.62190000  0.10940000  1
  C  C246  1  0.55440000  0.29990000  0.81680000  1
  C  C247  1  0.56940000  0.38800000  0.88720000  1
  C  C248  1  0.56960000  0.60640000  0.90050000  1
  C  C249  1  0.58010000  0.08830000  0.41360000  1
  C  C250  1  0.58530000  0.13340000  0.72940000  1
  C  C251  1  0.58770000  0.24320000  0.76590000  1
  C  C252  1  0.60070000  0.33340000  0.83800000  1
  C  C253  1  0.60910000  0.57530000  0.70460000  1
  C  C254  1  0.61530000  0.41930000  0.91330000  1
  C  C255  1  0.61640000  0.59060000  0.76790000  1
  C  C256  1  0.62070000  0.19460000  0.31800000  1
  C  C257  1  0.62580000  0.25060000  0.20370000  1
  C  C258  1  0.63280000  0.59160000  0.08450000  1
  C  C259  1  0.64010000  0.24930000  0.26290000  1
  C  C260  1  0.65060000  0.13770000  0.66420000  1
  C  C261  1  0.65110000  0.30260000  0.15130000  1
  C  C262  1  0.65140000  0.24930000  0.70350000  1
  C  C263  1  0.65260000  0.10900000  0.39210000  1
  C  C264  1  0.66950000  0.16630000  0.34650000  1
  C  C265  1  0.67390000  0.30260000  0.27580000  1
  C  C266  1  0.68480000  0.35190000  0.16090000  1
  C  C267  1  0.68570000  0.19680000  0.65190000  1
  C  C268  1  0.68770000  0.08220000  0.60730000  1
  C  C269  1  0.69540000  0.35410000  0.22480000  1
  C  C270  1  0.70850000  0.08030000  0.41790000  1
  C  C271  1  0.71220000  0.40680000  0.10420000  1
  C  C272  1  0.78350000  0.59570000  0.89990000  1
  C  C273  1  0.80180000  0.64330000  0.77480000  1
  C  C274  1  0.80380000  0.90890000  0.56110000  1
  C  C275  1  0.80880000  0.64890000  0.84230000  1
  C  C276  1  0.82420000  0.69300000  0.72290000  1
  C  C277  1  0.83430000  0.82540000  0.64510000  1
  C  C278  1  0.84120000  0.70090000  0.85100000  1
  C  C279  1  0.84810000  0.61520000  0.12860000  1
  C  C280  1  0.85480000  0.74650000  0.73460000  1
  C  C281  1  0.85830000  0.87750000  0.59160000  1
  C  C282  1  0.86480000  0.75090000  0.79880000  1
  C  C283  1  0.87630000  0.42700000  0.93130000  1
  C  C284  1  0.87870000  0.79970000  0.67820000  1
  C  C285  1  0.88090000  0.43520000  0.22560000  1
  C  C286  1  0.88550000  0.45260000  0.28830000  1
  C  C287  1  0.88570000  0.17400000  0.60540000  1
  C  C288  1  0.89840000  0.24080000  0.58800000  1
  C  C289  1  0.90260000  0.86850000  0.29590000  1
  C  C290  1  0.90870000  0.80510000  0.26870000  1
  C  C291  1  0.91310000  0.69760000  0.16110000  1
  C  C292  1  0.91750000  0.63630000  0.13030000  1
  C  C293  1  0.92460000  0.89920000  0.57450000  1
  C  C294  1  0.92840000  0.06100000  0.62930000  1
  C  C295  1  0.93610000  0.40620000  0.09320000  1
  C  C296  1  0.95000000  0.82400000  0.65690000  1
  C  C297  1  0.95050000  0.35230000  0.38630000  1
  C  C298  1  0.95060000  0.97930000  0.28670000  1
  C  C299  1  0.95110000  0.38450000  0.89660000  1
  C  C300  1  0.95190000  0.10130000  0.42140000  1
  C  C301  1  0.95230000  0.31520000  0.44080000  1
  C  C302  1  0.95540000  0.32310000  0.86580000  1
  C  C303  1  0.95550000  0.46060000  0.28420000  1
  C  C304  1  0.95610000  0.91100000  0.25690000  1
  C  C305  1  0.96220000  0.41910000  0.39840000  1
  C  C306  1  0.96230000  0.26430000  0.57500000  1
  C  C307  1  0.96370000  0.47390000  0.35280000  1
  C  C308  1  0.96390000  0.35520000  0.48920000  1
  C  C309  1  0.96820000  0.78410000  0.20250000  1
  C  C310  1  0.97410000  0.87300000  0.60550000  1
  C  C311  1  0.97520000  0.33610000  0.55440000  1
  C  C312  1  0.97670000  0.71790000  0.16300000  1
  C  C313  1  0.97710000  0.78050000  0.41790000  1
  C  C314  1  0.97830000  0.17340000  0.83640000  1
  C  C315  1  0.97850000  0.53850000  0.36020000  1
  C  C316  1  0.98380000  0.55160000  0.78250000  1
  C  C317  1  0.98380000  0.59380000  0.31010000  1
  C  C318  1  0.98430000  0.10990000  0.80930000  1
  C  C319  1  0.98540000  0.59520000  0.10140000  1
  C  C320  1  0.99180000  0.56860000  0.84400000  1
  C  C321  1  0.99300000  0.37470000  0.59790000  1
  C  C322  1  0.99710000  0.84730000  0.39960000  1
  C  C323  1  0.99860000  0.64630000  0.33590000  1
  N  N324  1  0.00990000  0.43960000  0.58340000  1
  N  N325  1  0.03060000  0.57940000  0.53830000  1
  N  N326  1  0.05920000  0.86880000  0.38960000  1
  N  N327  1  0.06110000  0.57310000  0.83740000  1
  N  N328  1  0.43810000  0.41250000  0.16660000  1
  N  N329  1  0.47760000  0.41460000  0.46190000  1
  N  N330  1  0.49450000  0.55410000  0.41220000  1
  N  N331  1  0.50550000  0.44590000  0.58780000  1
  N  N332  1  0.52240000  0.58540000  0.53810000  1
  N  N333  1  0.56190000  0.58750000  0.83340000  1
  N  N334  1  0.93890000  0.42690000  0.16260000  1
  N  N335  1  0.94080000  0.13120000  0.61040000  1
  N  N336  1  0.96940000  0.42060000  0.46170000  1
  N  N337  1  0.99010000  0.56040000  0.41660000  1
  Cl  Cl338  1  0.19490000  0.44430000  0.38290000  1
  Cl  Cl339  1  0.30830000  0.55190000  0.60900000  1
  Cl  Cl340  1  0.69170000  0.44810000  0.39100000  1
  Cl  Cl341  1  0.80510000  0.55570000  0.61710000  1
  O  O342  1  0.00660000  0.14780000  0.20670000  1
  O  O343  1  0.01270000  0.97730000  0.75590000  1
  O  O344  1  0.07010000  0.93710000  0.53270000  1
  O  O345  1  0.08350000  0.87500000  0.60920000  1
  O  O346  1  0.09150000  0.01450000  0.64690000  1
  O  O347  1  0.13400000  0.52870000  0.02230000  1
  O  O348  1  0.14240000  0.43000000  0.91530000  1
  O  O349  1  0.14430000  0.76730000  0.69390000  1
  O  O350  1  0.14770000  0.87480000  0.79600000  1
  O  O351  1  0.16950000  0.05350000  0.49140000  1
  O  O352  1  0.17370000  0.58100000  0.08850000  1
  O  O353  1  0.19670000  0.40000000  0.04830000  1
  O  O354  1  0.21410000  0.36250000  0.82040000  1
  O  O355  1  0.22490000  0.90810000  0.61140000  1
  O  O356  1  0.24540000  0.91690000  0.43630000  1
  O  O357  1  0.24940000  0.44840000  0.11130000  1
  O  O358  1  0.25950000  0.54930000  0.88270000  1
  O  O359  1  0.25960000  0.10460000  0.41450000  1
  O  O360  1  0.28920000  0.98270000  0.56600000  1
  O  O361  1  0.28950000  0.13540000  0.54420000  1
  O  O362  1  0.30610000  0.59920000  0.94910000  1
  O  O363  1  0.31310000  0.58650000  0.12800000  1
  O  O364  1  0.32570000  0.38110000  0.89250000  1
  O  O365  1  0.34390000  0.46100000  0.95250000  1
  O  O366  1  0.35360000  0.96230000  0.39020000  1
  O  O367  1  0.40870000  0.54790000  0.02970000  1
  O  O368  1  0.42280000  0.10220000  0.37630000  1
  O  O369  1  0.43570000  0.05350000  0.46550000  1
  O  O370  1  0.56430000  0.94650000  0.53450000  1
  O  O371  1  0.57720000  0.89780000  0.62370000  1
  O  O372  1  0.59130000  0.45210000  0.97030000  1
  O  O373  1  0.64640000  0.03770000  0.60980000  1
  O  O374  1  0.65610000  0.53900000  0.04750000  1
  O  O375  1  0.67430000  0.61890000  0.10750000  1
  O  O376  1  0.68690000  0.41350000  0.87200000  1
  O  O377  1  0.69390000  0.40080000  0.05090000  1
  O  O378  1  0.71050000  0.86460000  0.45580000  1
  O  O379  1  0.71080000  0.01730000  0.43400000  1
  O  O380  1  0.74040000  0.89540000  0.58550000  1
  O  O381  1  0.74050000  0.45070000  0.11730000  1
  O  O382  1  0.75060000  0.55160000  0.88870000  1
  O  O383  1  0.75460000  0.08310000  0.56370000  1
  O  O384  1  0.77510000  0.09190000  0.38860000  1
  O  O385  1  0.78590000  0.63750000  0.17960000  1
  O  O386  1  0.80330000  0.60000000  0.95170000  1
  O  O387  1  0.82630000  0.41900000  0.91150000  1
  O  O388  1  0.83050000  0.94650000  0.50860000  1
  O  O389  1  0.85230000  0.12520000  0.20400000  1
  O  O390  1  0.85570000  0.23270000  0.30610000  1
  O  O391  1  0.85760000  0.57000000  0.08470000  1
  O  O392  1  0.86600000  0.47130000  0.97770000  1
  O  O393  1  0.90850000  0.98550000  0.35310000  1
  O  O394  1  0.91650000  0.12500000  0.39080000  1
  O  O395  1  0.92990000  0.06290000  0.46730000  1
  O  O396  1  0.98730000  0.02270000  0.24410000  1
  O  O397  1  0.99340000  0.85220000  0.79330000  1
