# generated using pymatgen
data_Mn3H40C52O19
_symmetry_space_group_name_H-M   'P 1'
_cell_length_a   10.37330000
_cell_length_b   14.19080000
_cell_length_c   34.21520000
_cell_angle_alpha   78.30070000
_cell_angle_beta   81.28100000
_cell_angle_gamma   68.56200000
_symmetry_Int_Tables_number   1
_chemical_formula_structural   Mn3H40C52O19
_chemical_formula_sum   'Mn6 H80 C104 O38'
_cell_volume   4574.18438979
_cell_formula_units_Z   2
loop_
 _symmetry_equiv_pos_site_id
 _symmetry_equiv_pos_as_xyz
  1  'x, y, z'
loop_
 _atom_site_type_symbol
 _atom_site_label
 _atom_site_symmetry_multiplicity
 _atom_site_fract_x
 _atom_site_fract_y
 _atom_site_fract_z
 _atom_site_occupancy
  Mn  Mn0  1  0.02523000  0.94114000  0.85526000  1
  Mn  Mn1  1  0.17837000  0.44114000  0.35526000  1
  Mn  Mn2  1  0.39962000  0.82683000  0.83793000  1
  Mn  Mn3  1  0.69360000  0.21320000  0.31838000  1
  Mn  Mn4  1  0.77482000  0.71320000  0.81838000  1
  Mn  Mn5  1  0.93562000  0.32683000  0.33793000  1
  H  H6  1  0.00090000  0.69380000  0.96040000  1
  H  H7  1  0.02210000  0.82810000  0.67250000  1
  H  H8  1  0.03100000  0.35960000  0.22960000  1
  H  H9  1  0.04060000  0.55580000  0.01200000  1
  H  H10  1  0.05690000  0.10890000  0.42670000  1
  H  H11  1  0.07040000  0.09440000  0.94960000  1
  H  H12  1  0.09520000  0.32410000  0.16550000  1
  H  H13  1  0.09610000  0.97500000  0.48100000  1
  H  H14  1  0.11510000  0.17010000  0.99770000  1
  H  H15  1  0.13960000  0.85950000  0.55450000  1
  H  H16  1  0.16230000  0.96830000  0.18170000  1
  H  H17  1  0.17650000  0.33170000  0.09550000  1
  H  H18  1  0.18280000  0.27580000  0.03140000  1
  H  H19  1  0.19670000  0.67880000  0.59180000  1
  H  H20  1  0.22140000  0.82490000  0.51410000  1
  H  H21  1  0.24450000  0.21780000  0.11640000  1
  H  H22  1  0.24490000  0.16110000  0.05270000  1
  H  H23  1  0.25040000  0.65190000  0.54850000  1
  H  H24  1  0.27000000  0.12560000  0.27240000  1
  H  H25  1  0.27700000  0.50580000  0.62680000  1
  H  H26  1  0.28390000  0.47600000  0.58460000  1
  H  H27  1  0.28930000  0.54090000  0.72710000  1
  H  H28  1  0.32190000  0.96920000  0.12920000  1
  H  H29  1  0.33200000  0.62560000  0.77240000  1
  H  H30  1  0.34200000  0.17790000  0.69470000  1
  H  H31  1  0.34230000  0.30130000  0.61730000  1
  H  H32  1  0.34490000  0.19380000  0.46040000  1
  H  H33  1  0.36380000  0.33470000  0.49430000  1
  H  H34  1  0.36410000  0.31780000  0.65960000  1
  H  H35  1  0.37500000  0.85400000  0.15020000  1
  H  H36  1  0.37980000  0.85960000  0.72960000  1
  H  H37  1  0.38980000  0.04480000  0.74880000  1
  H  H38  1  0.39160000  0.05580000  0.51200000  1
  H  H39  1  0.39630000  0.83170000  0.59550000  1
  H  H40  1  0.40750000  0.60890000  0.92670000  1
  H  H41  1  0.41520000  0.82410000  0.66550000  1
  H  H42  1  0.41690000  0.35270000  0.23850000  1
  H  H43  1  0.42130000  0.71780000  0.61640000  1
  H  H44  1  0.42150000  0.82370000  0.01610000  1
  H  H45  1  0.42180000  0.92540000  0.06360000  1
  H  H46  1  0.43500000  0.61280000  0.44700000  1
  H  H47  1  0.43640000  0.78920000  0.95120000  1
  H  H48  1  0.43960000  0.32490000  0.01410000  1
  H  H49  1  0.44270000  0.04090000  0.22710000  1
  H  H50  1  0.44440000  0.30840000  0.42960000  1
  H  H51  1  0.44640000  0.35950000  0.05450000  1
  H  H52  1  0.44790000  0.47500000  0.98100000  1
  H  H53  1  0.46300000  0.03040000  0.90200000  1
  H  H54  1  0.46990000  0.80860000  0.08260000  1
  H  H55  1  0.47730000  0.32810000  0.17250000  1
  H  H56  1  0.50520000  0.11280000  0.94700000  1
  H  H57  1  0.51000000  0.77580000  0.53140000  1
  H  H58  1  0.52120000  0.57940000  0.15420000  1
  H  H59  1  0.53270000  0.17880000  0.09180000  1
  H  H60  1  0.54130000  0.66110000  0.55270000  1
  H  H61  1  0.54920000  0.15190000  0.04850000  1
  H  H62  1  0.55100000  0.44990000  0.20910000  1
  H  H63  1  0.57970000  0.46920000  0.62920000  1
  H  H64  1  0.58920000  0.42540000  0.56360000  1
  H  H65  1  0.59040000  0.00580000  0.12680000  1
  H  H66  1  0.60460000  0.53040000  0.40200000  1
  H  H67  1  0.62080000  0.35400000  0.65020000  1
  H  H68  1  0.63890000  0.30860000  0.58260000  1
  H  H69  1  0.65550000  0.97600000  0.08460000  1
  H  H70  1  0.65850000  0.81780000  0.15960000  1
  H  H71  1  0.68770000  0.46830000  0.68170000  1
  H  H72  1  0.71710000  0.67010000  0.49770000  1
  H  H73  1  0.73030000  0.55080000  0.72780000  1
  H  H74  1  0.73870000  0.32370000  0.51610000  1
  H  H75  1  0.73910000  0.80130000  0.11730000  1
  H  H76  1  0.74520000  0.07940000  0.65420000  1
  H  H77  1  0.78540000  0.67790000  0.19470000  1
  H  H78  1  0.79000000  0.94990000  0.70910000  1
  H  H79  1  0.80720000  0.83470000  0.99430000  1
  H  H80  1  0.81660000  0.54480000  0.24880000  1
  H  H81  1  0.81760000  0.80840000  0.92960000  1
  H  H82  1  0.82320000  0.28920000  0.45120000  1
  H  H83  1  0.88560000  0.59440000  0.44960000  1
  H  H84  1  0.99110000  0.05080000  0.22780000  1
  H  H85  1  0.99190000  0.85270000  0.73850000  1
  C  C86  1  0.07590000  0.84881000  0.72359000  1
  C  C87  1  0.08150000  0.04955000  0.22745000  1
  C  C88  1  0.09140000  0.64894000  0.96386000  1
  C  C89  1  0.09410000  0.83298000  0.68422000  1
  C  C90  1  0.11291000  0.09808000  0.25430000  1
  C  C91  1  0.11450000  0.56706000  0.99514000  1
  C  C92  1  0.12120000  0.35143000  0.21857000  1
  C  C93  1  0.12320000  0.09937000  0.44403000  1
  C  C94  1  0.14790000  0.01828000  0.47632000  1
  C  C95  1  0.15850000  0.33201000  0.17999000  1
  C  C96  1  0.15900000  0.09651000  0.94949000  1
  C  C97  1  0.15977000  0.87815000  0.78311000  1
  C  C98  1  0.16950000  0.75061000  0.90319000  1
  C  C99  1  0.17670000  0.25061000  0.40319000  1
  C  C100  1  0.17897000  0.37815000  0.28311000  1
  C  C101  1  0.18374000  0.85908000  0.74144000  1
  C  C102  1  0.18410000  0.99912000  0.20008000  1
  C  C103  1  0.18440000  0.14337000  0.97823000  1
  C  C104  1  0.19800000  0.66595000  0.93785000  1
  C  C105  1  0.19820000  0.16595000  0.43785000  1
  C  C106  1  0.21574000  0.35908000  0.24144000  1
  C  C107  1  0.22080000  0.82449000  0.66251000  1
  C  C108  1  0.23010000  0.84153000  0.53947000  1
  C  C109  1  0.23310000  0.99953000  0.89127000  1
  C  C110  1  0.24760000  0.00286000  0.50074000  1
  C  C111  1  0.24825000  0.09405000  0.25425000  1
  C  C112  1  0.24880000  0.50286000  0.00074000  1
  C  C113  1  0.26030000  0.05375000  0.92105000  1
  C  C114  1  0.26410000  0.27732000  0.10128000  1
  C  C115  1  0.26830000  0.21956000  0.03804000  1
  C  C116  1  0.27760000  0.66275000  0.57265000  1
  C  C117  1  0.29220000  0.32449000  0.16251000  1
  C  C118  1  0.29580000  0.14894000  0.46386000  1
  C  C119  1  0.30880000  0.85143000  0.71857000  1
  C  C120  1  0.31570000  0.14900000  0.97700000  1
  C  C121  1  0.31860000  0.99505000  0.20055000  1
  C  C122  1  0.32330000  0.06706000  0.49514000  1
  C  C123  1  0.32950000  0.83201000  0.67999000  1
  C  C124  1  0.33340000  0.59937000  0.94403000  1
  C  C125  1  0.33520000  0.48934000  0.60266000  1
  C  C126  1  0.33550000  0.75117000  0.56303000  1
  C  C127  1  0.35030000  0.25117000  0.06303000  1
  C  C128  1  0.35170000  0.34881000  0.22359000  1
  C  C129  1  0.35190000  0.04294000  0.22726000  1
  C  C130  1  0.35730000  0.77732000  0.60128000  1
  C  C131  1  0.35750000  0.51828000  0.97632000  1
  C  C132  1  0.37790000  0.54294000  0.72726000  1
  C  C133  1  0.38870000  0.33298000  0.18422000  1
  C  C134  1  0.38890000  0.34153000  0.03947000  1
  C  C135  1  0.39220000  0.05962000  0.92078000  1
  C  C136  1  0.39910000  0.91545000  0.14195000  1
  C  C137  1  0.40345000  0.59405000  0.75425000  1
  C  C138  1  0.40900000  0.30601000  0.63319000  1
  C  C139  1  0.41780000  0.10781000  0.94799000  1
  C  C140  1  0.43240000  0.13228000  0.69752000  1
  C  C141  1  0.45590000  0.32678000  0.48542000  1
  C  C142  1  0.46140000  0.39461000  0.61299000  1
  C  C143  1  0.46160000  0.05251000  0.73009000  1
  C  C144  1  0.47410000  0.71956000  0.53804000  1
  C  C145  1  0.48580000  0.49505000  0.70055000  1
  C  C146  1  0.48700000  0.16275000  0.07265000  1
  C  C147  1  0.49750000  0.86865000  0.07575000  1
  C  C148  1  0.50140000  0.81929000  0.99891000  1
  C  C149  1  0.50420000  0.31009000  0.44691000  1
  C  C150  1  0.51030000  0.79969000  0.95971000  1
  C  C151  1  0.52640000  0.60781000  0.44799000  1
  C  C152  1  0.53100000  0.89461000  0.11299000  1
  C  C153  1  0.53471000  0.59808000  0.75430000  1
  C  C154  1  0.53910000  0.14259000  0.66961000  1
  C  C155  1  0.54350000  0.41545000  0.64195000  1
  C  C156  1  0.54410000  0.33192000  0.51128000  1
  C  C157  1  0.55810000  0.36865000  0.57575000  1
  C  C158  1  0.55830000  0.64900000  0.47700000  1
  C  C159  1  0.56155000  0.65517000  0.78333000  1
  C  C160  1  0.57280000  0.98934000  0.10266000  1
  C  C161  1  0.57930000  0.57359000  0.17341000  1
  C  C162  1  0.59480000  0.98563000  0.73477000  1
  C  C163  1  0.59800000  0.49595000  0.20625000  1
  C  C164  1  0.61270000  0.83192000  0.01128000  1
  C  C165  1  0.61670000  0.49912000  0.70008000  1
  C  C166  1  0.62700000  0.79576000  0.93384000  1
  C  C167  1  0.62740000  0.55962000  0.42078000  1
  C  C168  1  0.62890000  0.90046000  0.77054000  1
  C  C169  1  0.63870000  0.77474000  0.89206000  1
  C  C170  1  0.64150000  0.54955000  0.72745000  1
  C  C171  1  0.64340000  0.29576000  0.43384000  1
  C  C172  1  0.64870000  0.64259000  0.16961000  1
  C  C173  1  0.65180000  0.80601000  0.13319000  1
  C  C174  1  0.67370000  0.07359000  0.67341000  1
  C  C175  1  0.68040000  0.31929000  0.49891000  1
  C  C176  1  0.68480000  0.48563000  0.23477000  1
  C  C177  1  0.69400000  0.64337000  0.47823000  1
  C  C178  1  0.69450000  0.27474000  0.39206000  1
  C  C179  1  0.69980000  0.99595000  0.70625000  1
  C  C180  1  0.70010000  0.40046000  0.27054000  1
  C  C181  1  0.73030000  0.29969000  0.45971000  1
  C  C182  1  0.73190000  0.82678000  0.98542000  1
  C  C183  1  0.73780000  0.63228000  0.19752000  1
  C  C184  1  0.73880000  0.81009000  0.94691000  1
  C  C185  1  0.75580000  0.55251000  0.23009000  1
  C  C186  1  0.76490000  0.55375000  0.42105000  1
  C  C187  1  0.79500000  0.59651000  0.44949000  1
  C  C188  1  0.87610000  0.49953000  0.39127000  1
  C  C189  1  0.99995000  0.15517000  0.28333000  1
  O  O190  1  0.03286000  0.20224000  0.30484000  1
  O  O191  1  0.04618000  0.81336000  0.90168000  1
  O  O192  1  0.05353000  0.86559000  0.80455000  1
  O  O193  1  0.05363000  0.41151000  0.29683000  1
  O  O194  1  0.09919000  0.25598000  0.37744000  1
  O  O195  1  0.10943000  0.00618000  0.89036000  1
  O  O196  1  0.22608000  0.80954000  0.62370000  1
  O  O197  1  0.23803000  0.91151000  0.79683000  1
  O  O198  1  0.23878000  0.31336000  0.40168000  1
  O  O199  1  0.25878000  0.42559000  0.03305000  1
  O  O200  1  0.26739000  0.75598000  0.87744000  1
  O  O201  1  0.27633000  0.36559000  0.30455000  1
  O  O202  1  0.28258000  0.92559000  0.53305000  1
  O  O203  1  0.33613000  0.95344000  0.86950000  1
  O  O204  1  0.34068000  0.30954000  0.12370000  1
  O  O205  1  0.35581000  0.19365000  0.00233000  1
  O  O206  1  0.38314000  0.57372000  0.58880000  1
  O  O207  1  0.42876000  0.94606000  0.17562000  1
  O  O208  1  0.44821000  0.69365000  0.50233000  1
  O  O209  1  0.44956000  0.44606000  0.67562000  1
  O  O210  1  0.45434000  0.07372000  0.08880000  1
  O  O211  1  0.46006000  0.70224000  0.80484000  1
  O  O212  1  0.48181000  0.34907000  0.54851000  1
  O  O213  1  0.52539000  0.21501000  0.63601000  1
  O  O214  1  0.53305000  0.89489000  0.79681000  1
  O  O215  1  0.55185000  0.74439000  0.88151000  1
  O  O216  1  0.60261000  0.28748000  0.36870000  1
  O  O217  1  0.62061000  0.84907000  0.04851000  1
  O  O218  1  0.62359000  0.71501000  0.13601000  1
  O  O219  1  0.63423000  0.34137000  0.27197000  1
  O  O220  1  0.68553000  0.65095000  0.78339000  1
  O  O221  1  0.74121000  0.78748000  0.86870000  1
  O  O222  1  0.75243000  0.84137000  0.77197000  1
  O  O223  1  0.77525000  0.39489000  0.29681000  1
  O  O224  1  0.82225000  0.24439000  0.38151000  1
  O  O225  1  0.84093000  0.45344000  0.36950000  1
  O  O226  1  0.88013000  0.15095000  0.28339000  1
  O  O227  1  0.99403000  0.50618000  0.39036000  1
