# generated using pymatgen
data_SmH9C18(NO2)3
_symmetry_space_group_name_H-M   'P 1'
_cell_length_a   15.51170000
_cell_length_b   17.10050000
_cell_length_c   25.52730000
_cell_angle_alpha   98.29800000
_cell_angle_beta   90.00000000
_cell_angle_gamma   90.00000000
_symmetry_Int_Tables_number   1
_chemical_formula_structural   SmH9C18(NO2)3
_chemical_formula_sum   'Sm8 H72 C144 N24 O48'
_cell_volume   6700.42602119
_cell_formula_units_Z   8
loop_
 _symmetry_equiv_pos_site_id
 _symmetry_equiv_pos_as_xyz
  1  'x, y, z'
loop_
 _atom_site_type_symbol
 _atom_site_label
 _atom_site_symmetry_multiplicity
 _atom_site_fract_x
 _atom_site_fract_y
 _atom_site_fract_z
 _atom_site_occupancy
  Sm  Sm0  1  0.82514000  0.68543000  0.74935000  1
  Sm  Sm1  1  0.79453000  0.96318000  0.75046000  1
  Sm  Sm2  1  0.70547000  0.46318000  0.75046000  1
  Sm  Sm3  1  0.67486000  0.18543000  0.74935000  1
  Sm  Sm4  1  0.32514000  0.81457000  0.25065000  1
  Sm  Sm5  1  0.29453000  0.53682000  0.24954000  1
  Sm  Sm6  1  0.20547000  0.03682000  0.24954000  1
  Sm  Sm7  1  0.17486000  0.31457000  0.25065000  1
  H  H8  1  0.99940000  0.61930000  0.88640000  1
  H  H9  1  0.97690000  0.03310000  0.62350000  1
  H  H10  1  0.97430000  0.26680000  0.04910000  1
  H  H11  1  0.96960000  0.71470000  0.49510000  1
  H  H12  1  0.96020000  0.73740000  0.86970000  1
  H  H13  1  0.93390000  0.38390000  0.50910000  1
  H  H14  1  0.93070000  0.60880000  0.63470000  1
  H  H15  1  0.92880000  0.27460000  0.98200000  1
  H  H16  1  0.91420000  0.04660000  0.85940000  1
  H  H17  1  0.91200000  0.69840000  0.57670000  1
  H  H18  1  0.90910000  0.25420000  0.54550000  1
  H  H19  1  0.90540000  0.93410000  0.61820000  1
  H  H20  1  0.89660000  0.41630000  0.97190000  1
  H  H21  1  0.86130000  0.38300000  0.58840000  1
  H  H22  1  0.85590000  0.94800000  0.92570000  1
  H  H23  1  0.84290000  0.27150000  0.90730000  1
  H  H24  1  0.83780000  0.43680000  0.89140000  1
  H  H25  1  0.83760000  0.23080000  0.62150000  1
  H  H26  1  0.66240000  0.73080000  0.62150000  1
  H  H27  1  0.66220000  0.93680000  0.89140000  1
  H  H28  1  0.65710000  0.77150000  0.90730000  1
  H  H29  1  0.64410000  0.44800000  0.92570000  1
  H  H30  1  0.63870000  0.88300000  0.58840000  1
  H  H31  1  0.60340000  0.91630000  0.97190000  1
  H  H32  1  0.59460000  0.43410000  0.61820000  1
  H  H33  1  0.59090000  0.75420000  0.54550000  1
  H  H34  1  0.58800000  0.19840000  0.57670000  1
  H  H35  1  0.58580000  0.54660000  0.85940000  1
  H  H36  1  0.57120000  0.77460000  0.98200000  1
  H  H37  1  0.56930000  0.10880000  0.63470000  1
  H  H38  1  0.56610000  0.88390000  0.50910000  1
  H  H39  1  0.53980000  0.23740000  0.86970000  1
  H  H40  1  0.53040000  0.21470000  0.49510000  1
  H  H41  1  0.52570000  0.76680000  0.04910000  1
  H  H42  1  0.52310000  0.53310000  0.62350000  1
  H  H43  1  0.50060000  0.11930000  0.88640000  1
  H  H44  1  0.49940000  0.88070000  0.11360000  1
  H  H45  1  0.47690000  0.46690000  0.37650000  1
  H  H46  1  0.47430000  0.23320000  0.95090000  1
  H  H47  1  0.46960000  0.78530000  0.50490000  1
  H  H48  1  0.46020000  0.76260000  0.13030000  1
  H  H49  1  0.43390000  0.11610000  0.49090000  1
  H  H50  1  0.43070000  0.89120000  0.36530000  1
  H  H51  1  0.42880000  0.22540000  0.01800000  1
  H  H52  1  0.41420000  0.45340000  0.14060000  1
  H  H53  1  0.41200000  0.80160000  0.42330000  1
  H  H54  1  0.40910000  0.24580000  0.45450000  1
  H  H55  1  0.40540000  0.56590000  0.38180000  1
  H  H56  1  0.39660000  0.08370000  0.02810000  1
  H  H57  1  0.36130000  0.11700000  0.41160000  1
  H  H58  1  0.35590000  0.55200000  0.07430000  1
  H  H59  1  0.34290000  0.22850000  0.09270000  1
  H  H60  1  0.33780000  0.06320000  0.10860000  1
  H  H61  1  0.33760000  0.26920000  0.37850000  1
  H  H62  1  0.16240000  0.76920000  0.37850000  1
  H  H63  1  0.16220000  0.56320000  0.10860000  1
  H  H64  1  0.15710000  0.72850000  0.09270000  1
  H  H65  1  0.14410000  0.05200000  0.07430000  1
  H  H66  1  0.13870000  0.61700000  0.41160000  1
  H  H67  1  0.10340000  0.58370000  0.02810000  1
  H  H68  1  0.09460000  0.06590000  0.38180000  1
  H  H69  1  0.09090000  0.74580000  0.45450000  1
  H  H70  1  0.08800000  0.30160000  0.42330000  1
  H  H71  1  0.08580000  0.95340000  0.14060000  1
  H  H72  1  0.07120000  0.72540000  0.01800000  1
  H  H73  1  0.06930000  0.39120000  0.36530000  1
  H  H74  1  0.06610000  0.61610000  0.49090000  1
  H  H75  1  0.03980000  0.26260000  0.13030000  1
  H  H76  1  0.03040000  0.28530000  0.50490000  1
  H  H77  1  0.02570000  0.73320000  0.95090000  1
  H  H78  1  0.02310000  0.96690000  0.37650000  1
  H  H79  1  0.00060000  0.38070000  0.11360000  1
  C  C80  1  0.99170000  0.77630000  0.94590000  1
  C  C81  1  0.98590000  0.15770000  0.53900000  1
  C  C82  1  0.98320000  0.50550000  0.97740000  1
  C  C83  1  0.98010000  0.83810000  0.98700000  1
  C  C84  1  0.97880000  0.57860000  0.90360000  1
  C  C85  1  0.97580000  0.49690000  0.52440000  1
  C  C86  1  0.97300000  0.16250000  0.96540000  1
  C  C87  1  0.97200000  0.83420000  0.50780000  1
  C  C88  1  0.96330000  0.07740000  0.60790000  1
  C  C89  1  0.95670000  0.75870000  0.51980000  1
  C  C90  1  0.95240000  0.77880000  0.89720000  1
  C  C91  1  0.93330000  0.42900000  0.53430000  1
  C  C92  1  0.93130000  0.56370000  0.60960000  1
  C  C93  1  0.92590000  0.22890000  0.95740000  1
  C  C94  1  0.92270000  0.20990000  0.56110000  1
  C  C95  1  0.92220000  0.74890000  0.56870000  1
  C  C96  1  0.91830000  0.89010000  0.59350000  1
  C  C97  1  0.91720000  0.45700000  0.95480000  1
  C  C98  1  0.91710000  0.09230000  0.88390000  1
  C  C99  1  0.91280000  0.53010000  0.88090000  1
  C  C100  1  0.90300000  0.81460000  0.60550000  1
  C  C101  1  0.90150000  0.84310000  0.88960000  1
  C  C102  1  0.90020000  0.12970000  0.63010000  1
  C  C103  1  0.88990000  0.90500000  0.93070000  1
  C  C104  1  0.88980000  0.42850000  0.58180000  1
  C  C105  1  0.88880000  0.49590000  0.61950000  1
  C  C106  1  0.88200000  0.46930000  0.90650000  1
  C  C107  1  0.87990000  0.19590000  0.60670000  1
  C  C108  1  0.87440000  0.22710000  0.91270000  1
  C  C109  1  0.87190000  0.54210000  0.82740000  1
  C  C110  1  0.87000000  0.15880000  0.87590000  1
  C  C111  1  0.86970000  0.80470000  0.65830000  1
  C  C112  1  0.86310000  0.85280000  0.83790000  1
  C  C113  1  0.84720000  0.11530000  0.67940000  1
  C  C114  1  0.83910000  0.49540000  0.66600000  1
  C  C115  1  0.81340000  0.15910000  0.82900000  1
  C  C116  1  0.68660000  0.65910000  0.82900000  1
  C  C117  1  0.66090000  0.99540000  0.66600000  1
  C  C118  1  0.65280000  0.61530000  0.67940000  1
  C  C119  1  0.63690000  0.35280000  0.83790000  1
  C  C120  1  0.63030000  0.30470000  0.65830000  1
  C  C121  1  0.63000000  0.65880000  0.87590000  1
  C  C122  1  0.62810000  0.04210000  0.82740000  1
  C  C123  1  0.62560000  0.72710000  0.91270000  1
  C  C124  1  0.62010000  0.69590000  0.60670000  1
  C  C125  1  0.61800000  0.96930000  0.90650000  1
  C  C126  1  0.61120000  0.99590000  0.61950000  1
  C  C127  1  0.61020000  0.92850000  0.58180000  1
  C  C128  1  0.61010000  0.40500000  0.93070000  1
  C  C129  1  0.59980000  0.62970000  0.63010000  1
  C  C130  1  0.59850000  0.34310000  0.88960000  1
  C  C131  1  0.59700000  0.31460000  0.60550000  1
  C  C132  1  0.58720000  0.03010000  0.88090000  1
  C  C133  1  0.58290000  0.59230000  0.88390000  1
  C  C134  1  0.58280000  0.95700000  0.95480000  1
  C  C135  1  0.58170000  0.39010000  0.59350000  1
  C  C136  1  0.57780000  0.24890000  0.56870000  1
  C  C137  1  0.57730000  0.70990000  0.56110000  1
  C  C138  1  0.57410000  0.72890000  0.95740000  1
  C  C139  1  0.56870000  0.06370000  0.60960000  1
  C  C140  1  0.56670000  0.92900000  0.53430000  1
  C  C141  1  0.54760000  0.27880000  0.89720000  1
  C  C142  1  0.54330000  0.25870000  0.51980000  1
  C  C143  1  0.53670000  0.57740000  0.60790000  1
  C  C144  1  0.52800000  0.33420000  0.50780000  1
  C  C145  1  0.52700000  0.66250000  0.96540000  1
  C  C146  1  0.52420000  0.99690000  0.52440000  1
  C  C147  1  0.52120000  0.07860000  0.90360000  1
  C  C148  1  0.51990000  0.33810000  0.98700000  1
  C  C149  1  0.51680000  0.00550000  0.97740000  1
  C  C150  1  0.51410000  0.65770000  0.53900000  1
  C  C151  1  0.50830000  0.27630000  0.94590000  1
  C  C152  1  0.49170000  0.72370000  0.05410000  1
  C  C153  1  0.48590000  0.34230000  0.46100000  1
  C  C154  1  0.48320000  0.99450000  0.02260000  1
  C  C155  1  0.48010000  0.66190000  0.01300000  1
  C  C156  1  0.47880000  0.92140000  0.09640000  1
  C  C157  1  0.47580000  0.00310000  0.47560000  1
  C  C158  1  0.47300000  0.33750000  0.03460000  1
  C  C159  1  0.47200000  0.66580000  0.49220000  1
  C  C160  1  0.46330000  0.42260000  0.39210000  1
  C  C161  1  0.45670000  0.74130000  0.48020000  1
  C  C162  1  0.45240000  0.72120000  0.10280000  1
  C  C163  1  0.43330000  0.07100000  0.46570000  1
  C  C164  1  0.43130000  0.93630000  0.39040000  1
  C  C165  1  0.42590000  0.27110000  0.04260000  1
  C  C166  1  0.42270000  0.29010000  0.43890000  1
  C  C167  1  0.42220000  0.75110000  0.43130000  1
  C  C168  1  0.41830000  0.60990000  0.40650000  1
  C  C169  1  0.41720000  0.04300000  0.04520000  1
  C  C170  1  0.41710000  0.40770000  0.11610000  1
  C  C171  1  0.41280000  0.96990000  0.11910000  1
  C  C172  1  0.40300000  0.68540000  0.39450000  1
  C  C173  1  0.40150000  0.65690000  0.11040000  1
  C  C174  1  0.40020000  0.37030000  0.36990000  1
  C  C175  1  0.38990000  0.59500000  0.06930000  1
  C  C176  1  0.38980000  0.07150000  0.41820000  1
  C  C177  1  0.38880000  0.00410000  0.38050000  1
  C  C178  1  0.38200000  0.03070000  0.09350000  1
  C  C179  1  0.37990000  0.30410000  0.39330000  1
  C  C180  1  0.37440000  0.27290000  0.08730000  1
  C  C181  1  0.37190000  0.95790000  0.17260000  1
  C  C182  1  0.37000000  0.34120000  0.12410000  1
  C  C183  1  0.36970000  0.69530000  0.34170000  1
  C  C184  1  0.36310000  0.64720000  0.16210000  1
  C  C185  1  0.34720000  0.38470000  0.32060000  1
  C  C186  1  0.33910000  0.00460000  0.33400000  1
  C  C187  1  0.31340000  0.34090000  0.17100000  1
  C  C188  1  0.18660000  0.84090000  0.17100000  1
  C  C189  1  0.16090000  0.50460000  0.33400000  1
  C  C190  1  0.15280000  0.88470000  0.32060000  1
  C  C191  1  0.13690000  0.14720000  0.16210000  1
  C  C192  1  0.13030000  0.19530000  0.34170000  1
  C  C193  1  0.13000000  0.84120000  0.12410000  1
  C  C194  1  0.12810000  0.45790000  0.17260000  1
  C  C195  1  0.12560000  0.77290000  0.08730000  1
  C  C196  1  0.12010000  0.80410000  0.39330000  1
  C  C197  1  0.11800000  0.53070000  0.09350000  1
  C  C198  1  0.11120000  0.50410000  0.38050000  1
  C  C199  1  0.11020000  0.57150000  0.41820000  1
  C  C200  1  0.11010000  0.09500000  0.06930000  1
  C  C201  1  0.09980000  0.87030000  0.36990000  1
  C  C202  1  0.09850000  0.15690000  0.11040000  1
  C  C203  1  0.09700000  0.18540000  0.39450000  1
  C  C204  1  0.08720000  0.46990000  0.11910000  1
  C  C205  1  0.08290000  0.90770000  0.11610000  1
  C  C206  1  0.08280000  0.54300000  0.04520000  1
  C  C207  1  0.08170000  0.10990000  0.40650000  1
  C  C208  1  0.07780000  0.25110000  0.43130000  1
  C  C209  1  0.07730000  0.79010000  0.43890000  1
  C  C210  1  0.07410000  0.77110000  0.04260000  1
  C  C211  1  0.06870000  0.43630000  0.39040000  1
  C  C212  1  0.06670000  0.57100000  0.46570000  1
  C  C213  1  0.04760000  0.22120000  0.10280000  1
  C  C214  1  0.04330000  0.24130000  0.48020000  1
  C  C215  1  0.03670000  0.92260000  0.39210000  1
  C  C216  1  0.02800000  0.16580000  0.49220000  1
  C  C217  1  0.02700000  0.83750000  0.03460000  1
  C  C218  1  0.02420000  0.50310000  0.47560000  1
  C  C219  1  0.02120000  0.42140000  0.09640000  1
  C  C220  1  0.01990000  0.16190000  0.01300000  1
  C  C221  1  0.01680000  0.49450000  0.02260000  1
  C  C222  1  0.01410000  0.84230000  0.46100000  1
  C  C223  1  0.00830000  0.22370000  0.05410000  1
  N  N224  1  0.99380000  0.90850000  0.43770000  1
  N  N225  1  0.98600000  0.43370000  0.04820000  1
  N  N226  1  0.97490000  0.56420000  0.56200000  1
  N  N227  1  0.96860000  0.09420000  0.92870000  1
  N  N228  1  0.95280000  0.89990000  0.54460000  1
  N  N229  1  0.92920000  0.90250000  0.97940000  1
  N  N230  1  0.57080000  0.40250000  0.97940000  1
  N  N231  1  0.54720000  0.39990000  0.54460000  1
  N  N232  1  0.53140000  0.59420000  0.92870000  1
  N  N233  1  0.52510000  0.06420000  0.56200000  1
  N  N234  1  0.51400000  0.93370000  0.04820000  1
  N  N235  1  0.50620000  0.40850000  0.43770000  1
  N  N236  1  0.49380000  0.59150000  0.56230000  1
  N  N237  1  0.48600000  0.06630000  0.95180000  1
  N  N238  1  0.47490000  0.93580000  0.43800000  1
  N  N239  1  0.46860000  0.40580000  0.07130000  1
  N  N240  1  0.45280000  0.60010000  0.45540000  1
  N  N241  1  0.42920000  0.59750000  0.02060000  1
  N  N242  1  0.07080000  0.09750000  0.02060000  1
  N  N243  1  0.04720000  0.10010000  0.45540000  1
  N  N244  1  0.03140000  0.90580000  0.07130000  1
  N  N245  1  0.02510000  0.43580000  0.43800000  1
  N  N246  1  0.01400000  0.56630000  0.95180000  1
  N  N247  1  0.00620000  0.09150000  0.56230000  1
  O  O248  1  0.88370000  0.61160000  0.81470000  1
  O  O249  1  0.88200000  0.79710000  0.80190000  1
  O  O250  1  0.86050000  0.86450000  0.69100000  1
  O  O251  1  0.85530000  0.04580000  0.68950000  1
  O  O252  1  0.85190000  0.73850000  0.66790000  1
  O  O253  1  0.83570000  0.55760000  0.69840000  1
  O  O254  1  0.83450000  0.48690000  0.80040000  1
  O  O255  1  0.82230000  0.91240000  0.83200000  1
  O  O256  1  0.80500000  0.17090000  0.70090000  1
  O  O257  1  0.80450000  0.09310000  0.79920000  1
  O  O258  1  0.80070000  0.43600000  0.67460000  1
  O  O259  1  0.77530000  0.21970000  0.82180000  1
  O  O260  1  0.72470000  0.71970000  0.82180000  1
  O  O261  1  0.69930000  0.93600000  0.67460000  1
  O  O262  1  0.69550000  0.59310000  0.79920000  1
  O  O263  1  0.69500000  0.67090000  0.70090000  1
  O  O264  1  0.67770000  0.41240000  0.83200000  1
  O  O265  1  0.66550000  0.98690000  0.80040000  1
  O  O266  1  0.66430000  0.05760000  0.69840000  1
  O  O267  1  0.64810000  0.23850000  0.66790000  1
  O  O268  1  0.64470000  0.54580000  0.68950000  1
  O  O269  1  0.63950000  0.36450000  0.69100000  1
  O  O270  1  0.61800000  0.29710000  0.80190000  1
  O  O271  1  0.61630000  0.11160000  0.81470000  1
  O  O272  1  0.38370000  0.88840000  0.18530000  1
  O  O273  1  0.38200000  0.70290000  0.19810000  1
  O  O274  1  0.36050000  0.63550000  0.30900000  1
  O  O275  1  0.35530000  0.45420000  0.31050000  1
  O  O276  1  0.35190000  0.76150000  0.33210000  1
  O  O277  1  0.33570000  0.94240000  0.30160000  1
  O  O278  1  0.33450000  0.01310000  0.19960000  1
  O  O279  1  0.32230000  0.58760000  0.16800000  1
  O  O280  1  0.30500000  0.32910000  0.29910000  1
  O  O281  1  0.30450000  0.40690000  0.20080000  1
  O  O282  1  0.30070000  0.06400000  0.32540000  1
  O  O283  1  0.27530000  0.28030000  0.17820000  1
  O  O284  1  0.22470000  0.78030000  0.17820000  1
  O  O285  1  0.19930000  0.56400000  0.32540000  1
  O  O286  1  0.19550000  0.90690000  0.20080000  1
  O  O287  1  0.19500000  0.82910000  0.29910000  1
  O  O288  1  0.17770000  0.08760000  0.16800000  1
  O  O289  1  0.16550000  0.51310000  0.19960000  1
  O  O290  1  0.16430000  0.44240000  0.30160000  1
  O  O291  1  0.14810000  0.26150000  0.33210000  1
  O  O292  1  0.14470000  0.95420000  0.31050000  1
  O  O293  1  0.13950000  0.13550000  0.30900000  1
  O  O294  1  0.11800000  0.20290000  0.19810000  1
  O  O295  1  0.11630000  0.38840000  0.18530000  1
