# generated using pymatgen
data_MnH4(C2O)4
_symmetry_space_group_name_H-M   'P 1'
_cell_length_a   10.75310000
_cell_length_b   13.50320000
_cell_length_c   14.41021343
_cell_angle_alpha   86.21503460
_cell_angle_beta   68.09256719
_cell_angle_gamma   66.53620000
_symmetry_Int_Tables_number   1
_chemical_formula_structural   MnH4(C2O)4
_chemical_formula_sum   'Mn6 H24 C48 O24'
_cell_volume   1772.36818290
_cell_formula_units_Z   6
loop_
 _symmetry_equiv_pos_site_id
 _symmetry_equiv_pos_as_xyz
  1  'x, y, z'
loop_
 _atom_site_type_symbol
 _atom_site_label
 _atom_site_symmetry_multiplicity
 _atom_site_fract_x
 _atom_site_fract_y
 _atom_site_fract_z
 _atom_site_occupancy
  Mn  Mn0  1  0.96836000  0.03879000  0.88996000  1
  Mn  Mn1  1  0.03346000  0.25000000  0.75000000  1
  Mn  Mn2  1  0.89711000  0.46121000  0.61004000  1
  Mn  Mn3  1  0.10289000  0.53879000  0.38996000  1
  Mn  Mn4  1  0.96654000  0.75000000  0.25000000  1
  Mn  Mn5  1  0.03164000  0.96121000  0.11004000  1
  H  H6  1  0.86310000  0.54120000  0.09220000  1
  H  H7  1  0.49650000  0.95880000  0.40780000  1
  H  H8  1  0.87460000  0.40830000  0.99090000  1
  H  H9  1  0.60950000  0.18700000  0.25280000  1
  H  H10  1  0.95160000  0.81920000  0.84680000  1
  H  H11  1  0.27380000  0.09170000  0.50910000  1
  H  H12  1  0.38240000  0.31920000  0.34680000  1
  H  H13  1  0.95070000  0.68700000  0.75280000  1
  H  H14  1  0.54500000  0.37680000  0.11560000  1
  H  H15  1  0.70750000  0.33920000  0.94940000  1
  H  H16  1  0.96260000  0.87680000  0.61560000  1
  H  H17  1  0.99610000  0.16080000  0.55060000  1
  H  H18  1  0.00390000  0.83920000  0.44940000  1
  H  H19  1  0.03740000  0.12320000  0.38440000  1
  H  H20  1  0.29250000  0.66080000  0.05060000  1
  H  H21  1  0.45500000  0.62320000  0.88440000  1
  H  H22  1  0.04930000  0.31300000  0.24720000  1
  H  H23  1  0.61760000  0.68080000  0.65320000  1
  H  H24  1  0.72620000  0.90830000  0.49090000  1
  H  H25  1  0.04840000  0.18080000  0.15320000  1
  H  H26  1  0.39050000  0.81300000  0.74720000  1
  H  H27  1  0.12540000  0.59170000  0.00910000  1
  H  H28  1  0.50350000  0.04120000  0.59220000  1
  H  H29  1  0.13690000  0.45880000  0.90780000  1
  C  C30  1  0.09719000  0.53136000  0.89666000  1
  C  C31  1  0.72529000  0.97487000  0.25995000  1
  C  C32  1  0.03537000  0.71902000  0.93904000  1
  C  C33  1  0.97268000  0.19517000  0.99607000  1
  C  C34  1  0.90838000  0.38903000  0.04301000  1
  C  C35  1  0.57576000  0.05958000  0.32050000  1
  C  C36  1  0.47479000  0.03136000  0.39666000  1
  C  C37  1  0.04416000  0.55958000  0.82050000  1
  C  C38  1  0.98584000  0.74717000  0.86075000  1
  C  C39  1  0.54138000  0.16752000  0.30332000  1
  C  C40  1  0.03989000  0.47487000  0.75995000  1
  C  C41  1  0.34042000  0.11097000  0.45699000  1
  C  C42  1  0.98778000  0.66752000  0.80332000  1
  C  C43  1  0.40624000  0.24717000  0.36075000  1
  C  C44  1  0.30657000  0.21902000  0.43904000  1
  C  C45  1  0.16392000  0.30483000  0.50393000  1
  C  C46  1  0.95672000  0.04425000  0.70551000  1
  C  C47  1  0.52654000  0.42614000  0.06918000  1
  C  C48  1  0.62443000  0.40396000  0.96978000  1
  C  C49  1  0.97753000  0.02183000  0.59931000  1
  C  C50  1  0.97814000  0.92614000  0.56918000  1
  C  C51  1  0.99817000  0.09604000  0.53022000  1
  C  C52  1  0.70648000  0.45575000  0.79449000  1
  C  C53  1  0.40133000  0.52183000  0.09931000  1
  C  C54  1  0.59867000  0.47817000  0.90069000  1
  C  C55  1  0.29352000  0.54425000  0.20551000  1
  C  C56  1  0.00183000  0.90396000  0.46978000  1
  C  C57  1  0.02186000  0.07386000  0.43082000  1
  C  C58  1  0.02247000  0.97817000  0.40069000  1
  C  C59  1  0.37557000  0.59604000  0.03022000  1
  C  C60  1  0.47346000  0.57386000  0.93082000  1
  C  C61  1  0.04328000  0.95575000  0.29449000  1
  C  C62  1  0.83608000  0.69517000  0.49607000  1
  C  C63  1  0.69343000  0.78098000  0.56096000  1
  C  C64  1  0.59376000  0.75283000  0.63925000  1
  C  C65  1  0.01222000  0.33248000  0.19668000  1
  C  C66  1  0.65958000  0.88903000  0.54301000  1
  C  C67  1  0.96011000  0.52513000  0.24005000  1
  C  C68  1  0.45862000  0.83248000  0.69668000  1
  C  C69  1  0.01416000  0.25283000  0.13925000  1
  C  C70  1  0.95584000  0.44042000  0.17950000  1
  C  C71  1  0.52521000  0.96864000  0.60334000  1
  C  C72  1  0.42424000  0.94042000  0.67950000  1
  C  C73  1  0.09162000  0.61097000  0.95699000  1
  C  C74  1  0.02732000  0.80483000  0.00393000  1
  C  C75  1  0.96463000  0.28098000  0.06096000  1
  C  C76  1  0.27471000  0.02513000  0.74005000  1
  C  C77  1  0.90281000  0.46864000  0.10334000  1
  O  O78  1  0.80756000  0.00855000  0.19173000  1
  O  O79  1  0.00598000  0.89883000  0.97581000  1
  O  O80  1  0.24220000  0.12112000  0.71688000  1
  O  O81  1  0.95582000  0.21632000  0.91372000  1
  O  O82  1  0.08020000  0.37888000  0.78312000  1
  O  O83  1  0.94713000  0.97275000  0.76459000  1
  O  O84  1  0.99216000  0.50855000  0.69173000  1
  O  O85  1  0.94904000  0.13353000  0.73339000  1
  O  O86  1  0.08586000  0.28368000  0.58628000  1
  O  O87  1  0.11938000  0.39883000  0.47581000  1
  O  O88  1  0.81596000  0.36647000  0.76661000  1
  O  O89  1  0.31553000  0.47275000  0.26459000  1
  O  O90  1  0.68447000  0.52725000  0.73541000  1
  O  O91  1  0.18404000  0.63353000  0.23339000  1
  O  O92  1  0.88062000  0.60117000  0.52419000  1
  O  O93  1  0.91414000  0.71632000  0.41372000  1
  O  O94  1  0.05096000  0.86647000  0.26661000  1
  O  O95  1  0.00784000  0.49145000  0.30827000  1
  O  O96  1  0.05287000  0.02725000  0.23541000  1
  O  O97  1  0.91980000  0.62112000  0.21688000  1
  O  O98  1  0.04418000  0.78368000  0.08628000  1
  O  O99  1  0.75780000  0.87888000  0.28312000  1
  O  O100  1  0.99402000  0.10117000  0.02419000  1
  O  O101  1  0.19244000  0.99145000  0.80827000  1
