# generated using pymatgen
data_DyH6(C2O)8
_symmetry_space_group_name_H-M   'P 1'
_cell_length_a   11.59760000
_cell_length_b   12.21300000
_cell_length_c   13.51870000
_cell_angle_alpha   65.03900000
_cell_angle_beta   68.35100000
_cell_angle_gamma   87.85800000
_symmetry_Int_Tables_number   1
_chemical_formula_structural   DyH6(C2O)8
_chemical_formula_sum   'Dy3 H18 C48 O24'
_cell_volume   1597.52224309
_cell_formula_units_Z   3
loop_
 _symmetry_equiv_pos_site_id
 _symmetry_equiv_pos_as_xyz
  1  'x, y, z'
loop_
 _atom_site_type_symbol
 _atom_site_label
 _atom_site_symmetry_multiplicity
 _atom_site_fract_x
 _atom_site_fract_y
 _atom_site_fract_z
 _atom_site_occupancy
  Dy  Dy0  1  0.00000000  0.50000000  0.50000000  1
  Dy  Dy1  1  0.07124000  0.66999000  0.67256000  1
  Dy  Dy2  1  0.92876000  0.33001000  0.32744000  1
  H  H3  1  0.00140000  0.87600000  0.17630000  1
  H  H4  1  0.00470000  0.94650000  0.85890000  1
  H  H5  1  0.00580000  0.60070000  0.08500000  1
  H  H6  1  0.13460000  0.00810000  0.54740000  1
  H  H7  1  0.22720000  0.32980000  0.53070000  1
  H  H8  1  0.25540000  0.36680000  0.67730000  1
  H  H9  1  0.39810000  0.04460000  0.66240000  1
  H  H10  1  0.41990000  0.49830000  0.34990000  1
  H  H11  1  0.43530000  0.78100000  0.42570000  1
  H  H12  1  0.56470000  0.21900000  0.57430000  1
  H  H13  1  0.58010000  0.50170000  0.65010000  1
  H  H14  1  0.60190000  0.95540000  0.33760000  1
  H  H15  1  0.74460000  0.63320000  0.32270000  1
  H  H16  1  0.77280000  0.67020000  0.46930000  1
  H  H17  1  0.86540000  0.99190000  0.45260000  1
  H  H18  1  0.99420000  0.39930000  0.91500000  1
  H  H19  1  0.99530000  0.05350000  0.14110000  1
  H  H20  1  0.99860000  0.12400000  0.82370000  1
  C  C21  1  0.00170000  0.93430000  0.01300000  1
  C  C22  1  0.00260000  0.84970000  0.12060000  1
  C  C23  1  0.00530000  0.72520000  0.14780000  1
  C  C24  1  0.00580000  0.89190000  0.93160000  1
  C  C25  1  0.00630000  0.64090000  0.26650000  1
  C  C26  1  0.00730000  0.68340000  0.06620000  1
  C  C27  1  0.01160000  0.76740000  0.95630000  1
  C  C28  1  0.02090000  0.72940000  0.86210000  1
  C  C29  1  0.07730000  0.23300000  0.47170000  1
  C  C30  1  0.16620000  0.17780000  0.53030000  1
  C  C31  1  0.18270000  0.05670000  0.55960000  1
  C  C32  1  0.23740000  0.24830000  0.55120000  1
  C  C33  1  0.26530000  0.62780000  0.43780000  1
  C  C34  1  0.27120000  0.00720000  0.60750000  1
  C  C35  1  0.28840000  0.87770000  0.63460000  1
  C  C36  1  0.32460000  0.19940000  0.60260000  1
  C  C37  1  0.34030000  0.07850000  0.62930000  1
  C  C38  1  0.34100000  0.36570000  0.65850000  1
  C  C39  1  0.34570000  0.55060000  0.69310000  1
  C  C40  1  0.39870000  0.28050000  0.62170000  1
  C  C41  1  0.40600000  0.63830000  0.39390000  1
  C  C42  1  0.40960000  0.45020000  0.66780000  1
  C  C43  1  0.46550000  0.55330000  0.35730000  1
  C  C44  1  0.47470000  0.72270000  0.40300000  1
  C  C45  1  0.52530000  0.27730000  0.59700000  1
  C  C46  1  0.53450000  0.44670000  0.64270000  1
  C  C47  1  0.59040000  0.54980000  0.33220000  1
  C  C48  1  0.59400000  0.36170000  0.60610000  1
  C  C49  1  0.60130000  0.71950000  0.37830000  1
  C  C50  1  0.65430000  0.44940000  0.30690000  1
  C  C51  1  0.65900000  0.63430000  0.34150000  1
  C  C52  1  0.65970000  0.92150000  0.37070000  1
  C  C53  1  0.67540000  0.80060000  0.39740000  1
  C  C54  1  0.71160000  0.12230000  0.36540000  1
  C  C55  1  0.72880000  0.99280000  0.39250000  1
  C  C56  1  0.73470000  0.37220000  0.56220000  1
  C  C57  1  0.76260000  0.75170000  0.44880000  1
  C  C58  1  0.81730000  0.94330000  0.44040000  1
  C  C59  1  0.83380000  0.82220000  0.46970000  1
  C  C60  1  0.92270000  0.76700000  0.52830000  1
  C  C61  1  0.97910000  0.27060000  0.13790000  1
  C  C62  1  0.98840000  0.23260000  0.04370000  1
  C  C63  1  0.99270000  0.31660000  0.93380000  1
  C  C64  1  0.99370000  0.35910000  0.73350000  1
  C  C65  1  0.99420000  0.10810000  0.06840000  1
  C  C66  1  0.99470000  0.27480000  0.85220000  1
  C  C67  1  0.99740000  0.15030000  0.87940000  1
  C  C68  1  0.99830000  0.06570000  0.98700000  1
  O  O69  1  0.00500000  0.20010000  0.22440000  1
  O  O70  1  0.02110000  0.17220000  0.44520000  1
  O  O71  1  0.02850000  0.47140000  0.68800000  1
  O  O72  1  0.03930000  0.68470000  0.32170000  1
  O  O73  1  0.05800000  0.62960000  0.86920000  1
  O  O74  1  0.06470000  0.34480000  0.44430000  1
  O  O75  1  0.20820000  0.69430000  0.48300000  1
  O  O76  1  0.21050000  0.54660000  0.42800000  1
  O  O77  1  0.23380000  0.82250000  0.60100000  1
  O  O78  1  0.23620000  0.55720000  0.70620000  1
  O  O79  1  0.35840000  0.82840000  0.68850000  1
  O  O80  1  0.41640000  0.62880000  0.69520000  1
  O  O81  1  0.58360000  0.37120000  0.30480000  1
  O  O82  1  0.64160000  0.17160000  0.31150000  1
  O  O83  1  0.76380000  0.44280000  0.29380000  1
  O  O84  1  0.76620000  0.17750000  0.39900000  1
  O  O85  1  0.78950000  0.45340000  0.57200000  1
  O  O86  1  0.79180000  0.30570000  0.51700000  1
  O  O87  1  0.93530000  0.65520000  0.55570000  1
  O  O88  1  0.94200000  0.37040000  0.13080000  1
  O  O89  1  0.96070000  0.31530000  0.67830000  1
  O  O90  1  0.97150000  0.52860000  0.31200000  1
  O  O91  1  0.97890000  0.82780000  0.55480000  1
  O  O92  1  0.99500000  0.79990000  0.77560000  1
