# generated using pymatgen
data_Yb2H6C18(SO4)3
_symmetry_space_group_name_H-M   'P 1'
_cell_length_a   11.64620000
_cell_length_b   17.20530000
_cell_length_c   18.26290000
_cell_angle_alpha   110.46200000
_cell_angle_beta   90.00000000
_cell_angle_gamma   90.00000000
_symmetry_Int_Tables_number   1
_chemical_formula_structural   Yb2H6C18(SO4)3
_chemical_formula_sum   'Yb8 H24 C72 S12 O48'
_cell_volume   3428.55754814
_cell_formula_units_Z   4
loop_
 _symmetry_equiv_pos_site_id
 _symmetry_equiv_pos_as_xyz
  1  'x, y, z'
loop_
 _atom_site_type_symbol
 _atom_site_label
 _atom_site_symmetry_multiplicity
 _atom_site_fract_x
 _atom_site_fract_y
 _atom_site_fract_z
 _atom_site_occupancy
  Yb  Yb0  1  0.58342000  0.99839000  0.09569000  1
  Yb  Yb1  1  0.41658000  0.99839000  0.59569000  1
  Yb  Yb2  1  0.92867000  0.50276000  0.89796000  1
  Yb  Yb3  1  0.07133000  0.50276000  0.39796000  1
  Yb  Yb4  1  0.92867000  0.49724000  0.60204000  1
  Yb  Yb5  1  0.07133000  0.49724000  0.10204000  1
  Yb  Yb6  1  0.58342000  0.00161000  0.40431000  1
  Yb  Yb7  1  0.41658000  0.00161000  0.90431000  1
  H  H8  1  0.70950000  0.83650000  0.75060000  1
  H  H9  1  0.29050000  0.83650000  0.25060000  1
  H  H10  1  0.76040000  0.81840000  0.29200000  1
  H  H11  1  0.23960000  0.81840000  0.79200000  1
  H  H12  1  0.55370000  0.79670000  0.57700000  1
  H  H13  1  0.44630000  0.79670000  0.07700000  1
  H  H14  1  0.83190000  0.71570000  0.69310000  1
  H  H15  1  0.16810000  0.71570000  0.19310000  1
  H  H16  1  0.87640000  0.69570000  0.22280000  1
  H  H17  1  0.12360000  0.69570000  0.72280000  1
  H  H18  1  0.65470000  0.67840000  0.58720000  1
  H  H19  1  0.34530000  0.67840000  0.08720000  1
  H  H20  1  0.65470000  0.32160000  0.91280000  1
  H  H21  1  0.34530000  0.32160000  0.41280000  1
  H  H22  1  0.87640000  0.30430000  0.27720000  1
  H  H23  1  0.12360000  0.30430000  0.77720000  1
  H  H24  1  0.83190000  0.28430000  0.80690000  1
  H  H25  1  0.16810000  0.28430000  0.30690000  1
  H  H26  1  0.55370000  0.20330000  0.92300000  1
  H  H27  1  0.44630000  0.20330000  0.42300000  1
  H  H28  1  0.76040000  0.18160000  0.20800000  1
  H  H29  1  0.23960000  0.18160000  0.70800000  1
  H  H30  1  0.70950000  0.16350000  0.74940000  1
  H  H31  1  0.29050000  0.16350000  0.24940000  1
  C  C32  1  0.65350000  0.89550000  0.91050000  1
  C  C33  1  0.34650000  0.89550000  0.41050000  1
  C  C34  1  0.61150000  0.88520000  0.20680000  1
  C  C35  1  0.38850000  0.88520000  0.70680000  1
  C  C36  1  0.62800000  0.87310000  0.47280000  1
  C  C37  1  0.37200000  0.87310000  0.97280000  1
  C  C38  1  0.72270000  0.82520000  0.85750000  1
  C  C39  1  0.27730000  0.82520000  0.35750000  1
  C  C40  1  0.69240000  0.81330000  0.18790000  1
  C  C41  1  0.30760000  0.81330000  0.68790000  1
  C  C42  1  0.74040000  0.80590000  0.77900000  1
  C  C43  1  0.25960000  0.80590000  0.27900000  1
  C  C44  1  0.66240000  0.79870000  0.49060000  1
  C  C45  1  0.33760000  0.79870000  0.99060000  1
  C  C46  1  0.75870000  0.79080000  0.23820000  1
  C  C47  1  0.24130000  0.79080000  0.73820000  1
  C  C48  1  0.61650000  0.77200000  0.54620000  1
  C  C49  1  0.38350000  0.77200000  0.04620000  1
  C  C50  1  0.80960000  0.73570000  0.74530000  1
  C  C51  1  0.19040000  0.73570000  0.24530000  1
  C  C52  1  0.82480000  0.71960000  0.19790000  1
  C  C53  1  0.17520000  0.71960000  0.69790000  1
  C  C54  1  0.67470000  0.70350000  0.55140000  1
  C  C55  1  0.32530000  0.70350000  0.05140000  1
  C  C56  1  0.84050000  0.70010000  0.79940000  1
  C  C57  1  0.15950000  0.70010000  0.29940000  1
  C  C58  1  0.80570000  0.68930000  0.11920000  1
  C  C59  1  0.19430000  0.68930000  0.61920000  1
  C  C60  1  0.76320000  0.67610000  0.49990000  1
  C  C61  1  0.23680000  0.67610000  0.99990000  1
  C  C62  1  0.90740000  0.62290000  0.78480000  1
  C  C63  1  0.09260000  0.62290000  0.28480000  1
  C  C64  1  0.85830000  0.61720000  0.05680000  1
  C  C65  1  0.14170000  0.61720000  0.55680000  1
  C  C66  1  0.84830000  0.60970000  0.49540000  1
  C  C67  1  0.15170000  0.60970000  0.99540000  1
  C  C68  1  0.84830000  0.39030000  0.00460000  1
  C  C69  1  0.15170000  0.39030000  0.50460000  1
  C  C70  1  0.85830000  0.38280000  0.44320000  1
  C  C71  1  0.14170000  0.38280000  0.94320000  1
  C  C72  1  0.90740000  0.37710000  0.71520000  1
  C  C73  1  0.09260000  0.37710000  0.21520000  1
  C  C74  1  0.76320000  0.32390000  0.00010000  1
  C  C75  1  0.23680000  0.32390000  0.50010000  1
  C  C76  1  0.80570000  0.31070000  0.38080000  1
  C  C77  1  0.19430000  0.31070000  0.88080000  1
  C  C78  1  0.84050000  0.29990000  0.70060000  1
  C  C79  1  0.15950000  0.29990000  0.20060000  1
  C  C80  1  0.67470000  0.29650000  0.94860000  1
  C  C81  1  0.32530000  0.29650000  0.44860000  1
  C  C82  1  0.82480000  0.28040000  0.30210000  1
  C  C83  1  0.17520000  0.28040000  0.80210000  1
  C  C84  1  0.80960000  0.26430000  0.75470000  1
  C  C85  1  0.19040000  0.26430000  0.25470000  1
  C  C86  1  0.61650000  0.22800000  0.95380000  1
  C  C87  1  0.38350000  0.22800000  0.45380000  1
  C  C88  1  0.75870000  0.20920000  0.26180000  1
  C  C89  1  0.24130000  0.20920000  0.76180000  1
  C  C90  1  0.66240000  0.20130000  0.00940000  1
  C  C91  1  0.33760000  0.20130000  0.50940000  1
  C  C92  1  0.74040000  0.19410000  0.72100000  1
  C  C93  1  0.25960000  0.19410000  0.22100000  1
  C  C94  1  0.69240000  0.18670000  0.31210000  1
  C  C95  1  0.30760000  0.18670000  0.81210000  1
  C  C96  1  0.72270000  0.17480000  0.64250000  1
  C  C97  1  0.27730000  0.17480000  0.14250000  1
  C  C98  1  0.62800000  0.12690000  0.02720000  1
  C  C99  1  0.37200000  0.12690000  0.52720000  1
  C  C100  1  0.61150000  0.11480000  0.29320000  1
  C  C101  1  0.38850000  0.11480000  0.79320000  1
  C  C102  1  0.65350000  0.10450000  0.58950000  1
  C  C103  1  0.34650000  0.10450000  0.08950000  1
  S  S104  1  0.78920000  0.75521000  0.89112000  1
  S  S105  1  0.21080000  0.75521000  0.39112000  1
  S  S106  1  0.70882000  0.74883000  0.09210000  1
  S  S107  1  0.29118000  0.74883000  0.59210000  1
  S  S108  1  0.77539000  0.73712000  0.44239000  1
  S  S109  1  0.22461000  0.73712000  0.94239000  1
  S  S110  1  0.77539000  0.26288000  0.05761000  1
  S  S111  1  0.22461000  0.26288000  0.55761000  1
  S  S112  1  0.70882000  0.25117000  0.40790000  1
  S  S113  1  0.29118000  0.25117000  0.90790000  1
  S  S114  1  0.78920000  0.24479000  0.60888000  1
  S  S115  1  0.21080000  0.24479000  0.10888000  1
  O  O116  1  0.58190000  0.92650000  0.87770000  1
  O  O117  1  0.41810000  0.92650000  0.37770000  1
  O  O118  1  0.58880000  0.92360000  0.27630000  1
  O  O119  1  0.41120000  0.92360000  0.77630000  1
  O  O120  1  0.55110000  0.91950000  0.51270000  1
  O  O121  1  0.44890000  0.91950000  0.01270000  1
  O  O122  1  0.67430000  0.91870000  0.98280000  1
  O  O123  1  0.32570000  0.91870000  0.48280000  1
  O  O124  1  0.56940000  0.89910000  0.14800000  1
  O  O125  1  0.43060000  0.89910000  0.64800000  1
  O  O126  1  0.67380000  0.88650000  0.41640000  1
  O  O127  1  0.32620000  0.88650000  0.91640000  1
  O  O128  1  0.82500000  0.60260000  0.98850000  1
  O  O129  1  0.17500000  0.60260000  0.48850000  1
  O  O130  1  0.91540000  0.59440000  0.83830000  1
  O  O131  1  0.08460000  0.59440000  0.33830000  1
  O  O132  1  0.92120000  0.59370000  0.44310000  1
  O  O133  1  0.07880000  0.59370000  0.94310000  1
  O  O134  1  0.95560000  0.59200000  0.71850000  1
  O  O135  1  0.04440000  0.59200000  0.21850000  1
  O  O136  1  0.83450000  0.57780000  0.54680000  1
  O  O137  1  0.16550000  0.57780000  0.04680000  1
  O  O138  1  0.93210000  0.57460000  0.07650000  1
  O  O139  1  0.06790000  0.57460000  0.57650000  1
  O  O140  1  0.93210000  0.42540000  0.42350000  1
  O  O141  1  0.06790000  0.42540000  0.92350000  1
  O  O142  1  0.83450000  0.42220000  0.95320000  1
  O  O143  1  0.16550000  0.42220000  0.45320000  1
  O  O144  1  0.95560000  0.40800000  0.78150000  1
  O  O145  1  0.04440000  0.40800000  0.28150000  1
  O  O146  1  0.92120000  0.40630000  0.05690000  1
  O  O147  1  0.07880000  0.40630000  0.55690000  1
  O  O148  1  0.91540000  0.40560000  0.66170000  1
  O  O149  1  0.08460000  0.40560000  0.16170000  1
  O  O150  1  0.82500000  0.39740000  0.51150000  1
  O  O151  1  0.17500000  0.39740000  0.01150000  1
  O  O152  1  0.67380000  0.11350000  0.08360000  1
  O  O153  1  0.32620000  0.11350000  0.58360000  1
  O  O154  1  0.56940000  0.10090000  0.35200000  1
  O  O155  1  0.43060000  0.10090000  0.85200000  1
  O  O156  1  0.67430000  0.08130000  0.51720000  1
  O  O157  1  0.32570000  0.08130000  0.01720000  1
  O  O158  1  0.55110000  0.08050000  0.98730000  1
  O  O159  1  0.44890000  0.08050000  0.48730000  1
  O  O160  1  0.58880000  0.07640000  0.22370000  1
  O  O161  1  0.41120000  0.07640000  0.72370000  1
  O  O162  1  0.58190000  0.07350000  0.62230000  1
  O  O163  1  0.41810000  0.07350000  0.12230000  1
