# generated using pymatgen
data_NdH3(C3O2)3
_symmetry_space_group_name_H-M   'P 1'
_cell_length_a   10.42780000
_cell_length_b   10.42780000
_cell_length_c   14.26020000
_cell_angle_alpha   90.00000000
_cell_angle_beta   90.00000000
_cell_angle_gamma   90.00000000
_symmetry_Int_Tables_number   1
_chemical_formula_structural   NdH3(C3O2)3
_chemical_formula_sum   'Nd4 H12 C36 O24'
_cell_volume   1550.64007090
_cell_formula_units_Z   4
loop_
 _symmetry_equiv_pos_site_id
 _symmetry_equiv_pos_as_xyz
  1  'x, y, z'
loop_
 _atom_site_type_symbol
 _atom_site_label
 _atom_site_symmetry_multiplicity
 _atom_site_fract_x
 _atom_site_fract_y
 _atom_site_fract_z
 _atom_site_occupancy
  Nd  Nd0  1  0.13114000  0.86595000  0.12473000  1
  Nd  Nd1  1  0.13405000  0.13114000  0.37473000  1
  Nd  Nd2  1  0.86595000  0.86886000  0.87473000  1
  Nd  Nd3  1  0.86886000  0.13405000  0.62473000  1
  H  H4  1  0.00600000  0.12220000  0.00020000  1
  H  H5  1  0.03530000  0.44870000  0.14350000  1
  H  H6  1  0.08270000  0.54740000  0.37810000  1
  H  H7  1  0.12220000  0.99400000  0.75020000  1
  H  H8  1  0.44870000  0.96470000  0.89350000  1
  H  H9  1  0.45260000  0.08270000  0.62810000  1
  H  H10  1  0.54740000  0.91730000  0.12810000  1
  H  H11  1  0.55130000  0.03530000  0.39350000  1
  H  H12  1  0.87780000  0.00600000  0.25020000  1
  H  H13  1  0.91730000  0.45260000  0.87810000  1
  H  H14  1  0.96470000  0.55130000  0.64350000  1
  H  H15  1  0.99400000  0.87780000  0.50020000  1
  C  C16  1  0.00340000  0.78930000  0.50370000  1
  C  C17  1  0.01480000  0.40420000  0.08900000  1
  C  C18  1  0.02150000  0.27080000  0.08870000  1
  C  C19  1  0.02160000  0.52850000  0.51060000  1
  C  C20  1  0.02840000  0.37910000  0.51310000  1
  C  C21  1  0.04070000  0.72550000  0.42590000  1
  C  C22  1  0.05310000  0.59260000  0.43000000  1
  C  C23  1  0.05610000  0.19990000  0.17550000  1
  C  C24  1  0.07200000  0.79580000  0.33710000  1
  C  C25  1  0.19990000  0.94390000  0.92550000  1
  C  C26  1  0.20420000  0.07200000  0.58710000  1
  C  C27  1  0.21070000  0.00340000  0.75370000  1
  C  C28  1  0.27080000  0.97850000  0.83870000  1
  C  C29  1  0.27450000  0.04070000  0.67590000  1
  C  C30  1  0.37910000  0.97160000  0.26310000  1
  C  C31  1  0.40420000  0.98520000  0.83900000  1
  C  C32  1  0.40740000  0.05310000  0.68000000  1
  C  C33  1  0.47150000  0.02160000  0.76060000  1
  C  C34  1  0.52850000  0.97840000  0.26060000  1
  C  C35  1  0.59260000  0.94690000  0.18000000  1
  C  C36  1  0.59580000  0.01480000  0.33900000  1
  C  C37  1  0.62090000  0.02840000  0.76310000  1
  C  C38  1  0.72550000  0.95930000  0.17590000  1
  C  C39  1  0.72920000  0.02150000  0.33870000  1
  C  C40  1  0.78930000  0.99660000  0.25370000  1
  C  C41  1  0.79580000  0.92800000  0.08710000  1
  C  C42  1  0.80010000  0.05610000  0.42550000  1
  C  C43  1  0.92800000  0.20420000  0.83710000  1
  C  C44  1  0.94390000  0.80010000  0.67550000  1
  C  C45  1  0.94690000  0.40740000  0.93000000  1
  C  C46  1  0.95930000  0.27450000  0.92590000  1
  C  C47  1  0.97160000  0.62090000  0.01310000  1
  C  C48  1  0.97840000  0.47150000  0.01060000  1
  C  C49  1  0.97850000  0.72920000  0.58870000  1
  C  C50  1  0.98520000  0.59580000  0.58900000  1
  C  C51  1  0.99660000  0.21070000  0.00370000  1
  O  O52  1  0.02800000  0.67300000  0.07920000  1
  O  O53  1  0.04020000  0.25850000  0.25210000  1
  O  O54  1  0.07570000  0.91750000  0.33710000  1
  O  O55  1  0.08250000  0.07570000  0.58710000  1
  O  O56  1  0.08860000  0.32680000  0.44940000  1
  O  O57  1  0.09060000  0.89860000  0.92260000  1
  O  O58  1  0.09510000  0.73200000  0.26430000  1
  O  O59  1  0.10140000  0.09060000  0.17260000  1
  O  O60  1  0.25850000  0.95980000  0.00210000  1
  O  O61  1  0.26800000  0.09510000  0.51430000  1
  O  O62  1  0.32680000  0.91140000  0.19940000  1
  O  O63  1  0.32700000  0.02800000  0.32920000  1
  O  O64  1  0.67300000  0.97200000  0.82920000  1
  O  O65  1  0.67320000  0.08860000  0.69940000  1
  O  O66  1  0.73200000  0.90490000  0.01430000  1
  O  O67  1  0.74150000  0.04020000  0.50210000  1
  O  O68  1  0.89860000  0.90940000  0.67260000  1
  O  O69  1  0.90490000  0.26800000  0.76430000  1
  O  O70  1  0.90940000  0.10140000  0.42260000  1
  O  O71  1  0.91140000  0.67320000  0.94940000  1
  O  O72  1  0.91750000  0.92430000  0.08710000  1
  O  O73  1  0.92430000  0.08250000  0.83710000  1
  O  O74  1  0.95980000  0.74150000  0.75210000  1
  O  O75  1  0.97200000  0.32700000  0.57920000  1
