# generated using pymatgen
data_Cu4H7C11S3N2O15
_symmetry_space_group_name_H-M   'P 1'
_cell_length_a   13.65420000
_cell_length_b   13.65420000
_cell_length_c   42.16000000
_cell_angle_alpha   90.00000000
_cell_angle_beta   90.00000000
_cell_angle_gamma   90.00000000
_symmetry_Int_Tables_number   1
_chemical_formula_structural   Cu4H7C11S3N2O15
_chemical_formula_sum   'Cu32 H56 C88 S24 N16 O120'
_cell_volume   7860.19140930
_cell_formula_units_Z   8
loop_
 _symmetry_equiv_pos_site_id
 _symmetry_equiv_pos_as_xyz
  1  'x, y, z'
loop_
 _atom_site_type_symbol
 _atom_site_label
 _atom_site_symmetry_multiplicity
 _atom_site_fract_x
 _atom_site_fract_y
 _atom_site_fract_z
 _atom_site_occupancy
  Cu  Cu0  1  0.01279000  0.94233000  0.52928000  1
  Cu  Cu1  1  0.04182000  0.17228000  0.52036000  1
  Cu  Cu2  1  0.05767000  0.98721000  0.97072000  1
  Cu  Cu3  1  0.07820000  0.22394000  0.98633000  1
  Cu  Cu4  1  0.13234000  0.65183000  0.99602000  1
  Cu  Cu5  1  0.15183000  0.36766000  0.24602000  1
  Cu  Cu6  1  0.17228000  0.04182000  0.47964000  1
  Cu  Cu7  1  0.22394000  0.07820000  0.01367000  1
  Cu  Cu8  1  0.27606000  0.57820000  0.73633000  1
  Cu  Cu9  1  0.32772000  0.54182000  0.27036000  1
  Cu  Cu10  1  0.34817000  0.86766000  0.50398000  1
  Cu  Cu11  1  0.36766000  0.15183000  0.75398000  1
  Cu  Cu12  1  0.42180000  0.72394000  0.76367000  1
  Cu  Cu13  1  0.44233000  0.48721000  0.77928000  1
  Cu  Cu14  1  0.45818000  0.67228000  0.22964000  1
  Cu  Cu15  1  0.48721000  0.44233000  0.22072000  1
  Cu  Cu16  1  0.51279000  0.55767000  0.72072000  1
  Cu  Cu17  1  0.54182000  0.32772000  0.72964000  1
  Cu  Cu18  1  0.55767000  0.51279000  0.27928000  1
  Cu  Cu19  1  0.57820000  0.27606000  0.26367000  1
  Cu  Cu20  1  0.63234000  0.84817000  0.25398000  1
  Cu  Cu21  1  0.65183000  0.13234000  0.00398000  1
  Cu  Cu22  1  0.67228000  0.45818000  0.77036000  1
  Cu  Cu23  1  0.72394000  0.42180000  0.23633000  1
  Cu  Cu24  1  0.77606000  0.92180000  0.51367000  1
  Cu  Cu25  1  0.82772000  0.95818000  0.97964000  1
  Cu  Cu26  1  0.84817000  0.63234000  0.74602000  1
  Cu  Cu27  1  0.86766000  0.34817000  0.49602000  1
  Cu  Cu28  1  0.92180000  0.77606000  0.48633000  1
  Cu  Cu29  1  0.94233000  0.01279000  0.47072000  1
  Cu  Cu30  1  0.95818000  0.82772000  0.02036000  1
  Cu  Cu31  1  0.98721000  0.05767000  0.02928000  1
  H  H32  1  0.01360000  0.59760000  0.82760000  1
  H  H33  1  0.02360000  0.31260000  0.92760000  1
  H  H34  1  0.05520000  0.60120000  0.93300000  1
  H  H35  1  0.06360000  0.60880000  0.75590000  1
  H  H36  1  0.07870000  0.42080000  0.12780000  1
  H  H37  1  0.07920000  0.57870000  0.87780000  1
  H  H38  1  0.09760000  0.48640000  0.07760000  1
  H  H39  1  0.10120000  0.44480000  0.18300000  1
  H  H40  1  0.10790000  0.63960000  0.39520000  1
  H  H41  1  0.10880000  0.43640000  0.00590000  1
  H  H42  1  0.12370000  0.32980000  0.59560000  1
  H  H43  1  0.13960000  0.39210000  0.64520000  1
  H  H44  1  0.17020000  0.62370000  0.34560000  1
  H  H45  1  0.18740000  0.52360000  0.67760000  1
  H  H46  1  0.31260000  0.02360000  0.07240000  1
  H  H47  1  0.32980000  0.12370000  0.40440000  1
  H  H48  1  0.36040000  0.89210000  0.10480000  1
  H  H49  1  0.37630000  0.82980000  0.15440000  1
  H  H50  1  0.39120000  0.93640000  0.74410000  1
  H  H51  1  0.39210000  0.13960000  0.35480000  1
  H  H52  1  0.39880000  0.94480000  0.56700000  1
  H  H53  1  0.40240000  0.98640000  0.67240000  1
  H  H54  1  0.42080000  0.07870000  0.87220000  1
  H  H55  1  0.42130000  0.92080000  0.62220000  1
  H  H56  1  0.43640000  0.10880000  0.99410000  1
  H  H57  1  0.44480000  0.10120000  0.81700000  1
  H  H58  1  0.47640000  0.81260000  0.82240000  1
  H  H59  1  0.48640000  0.09760000  0.92240000  1
  H  H60  1  0.51360000  0.90240000  0.42240000  1
  H  H61  1  0.52360000  0.18740000  0.32240000  1
  H  H62  1  0.55520000  0.89880000  0.31700000  1
  H  H63  1  0.56360000  0.89120000  0.49410000  1
  H  H64  1  0.57870000  0.07920000  0.12220000  1
  H  H65  1  0.57920000  0.92130000  0.37220000  1
  H  H66  1  0.59760000  0.01360000  0.17240000  1
  H  H67  1  0.60120000  0.05520000  0.06700000  1
  H  H68  1  0.60790000  0.86040000  0.85480000  1
  H  H69  1  0.60880000  0.06360000  0.24410000  1
  H  H70  1  0.62370000  0.17020000  0.65440000  1
  H  H71  1  0.63960000  0.10790000  0.60480000  1
  H  H72  1  0.67020000  0.87630000  0.90440000  1
  H  H73  1  0.68740000  0.97640000  0.57240000  1
  H  H74  1  0.81260000  0.47640000  0.17760000  1
  H  H75  1  0.82980000  0.37630000  0.84560000  1
  H  H76  1  0.86040000  0.60790000  0.14520000  1
  H  H77  1  0.87630000  0.67020000  0.09560000  1
  H  H78  1  0.89120000  0.56360000  0.50590000  1
  H  H79  1  0.89210000  0.36040000  0.89520000  1
  H  H80  1  0.89880000  0.55520000  0.68300000  1
  H  H81  1  0.90240000  0.51360000  0.57760000  1
  H  H82  1  0.92080000  0.42130000  0.37780000  1
  H  H83  1  0.92130000  0.57920000  0.62780000  1
  H  H84  1  0.93640000  0.39120000  0.25590000  1
  H  H85  1  0.94480000  0.39880000  0.43300000  1
  H  H86  1  0.97640000  0.68740000  0.42760000  1
  H  H87  1  0.98640000  0.40240000  0.32760000  1
  C  C88  1  0.00510000  0.63500000  0.05046000  1
  C  C89  1  0.00870000  0.53050000  0.39205000  1
  C  C90  1  0.00980000  0.41330000  0.58139000  1
  C  C91  1  0.01120000  0.45000000  0.34120000  1
  C  C92  1  0.02770000  0.53880000  0.87136000  1
  C  C93  1  0.03030000  0.45920000  0.92445000  1
  C  C94  1  0.03050000  0.49130000  0.64205000  1
  C  C95  1  0.03840000  0.36910000  0.93897000  1
  C  C96  1  0.03880000  0.47230000  0.12136000  1
  C  C97  1  0.03940000  0.44230000  0.19218000  1
  C  C98  1  0.04080000  0.53030000  0.67445000  1
  C  C99  1  0.05000000  0.51120000  0.09120000  1
  C  C100  1  0.05770000  0.53940000  0.94218000  1
  C  C101  1  0.05780000  0.59000000  0.73476000  1
  C  C102  1  0.08160000  0.37930000  0.60221000  1
  C  C103  1  0.08340000  0.59150000  0.38171000  1
  C  C104  1  0.08670000  0.50980000  0.33139000  1
  C  C105  1  0.09000000  0.44220000  0.98476000  1
  C  C106  1  0.09150000  0.41660000  0.63171000  1
  C  C107  1  0.12070000  0.58160000  0.35221000  1
  C  C108  1  0.13090000  0.53840000  0.68897000  1
  C  C109  1  0.13500000  0.49490000  0.30046000  1
  C  C110  1  0.36500000  0.99490000  0.44954000  1
  C  C111  1  0.36910000  0.03840000  0.06103000  1
  C  C112  1  0.37930000  0.08160000  0.39779000  1
  C  C113  1  0.40850000  0.91660000  0.11829000  1
  C  C114  1  0.41000000  0.94220000  0.76524000  1
  C  C115  1  0.41330000  0.00980000  0.41861000  1
  C  C116  1  0.41660000  0.09150000  0.36829000  1
  C  C117  1  0.41840000  0.87930000  0.14779000  1
  C  C118  1  0.44220000  0.09000000  0.01524000  1
  C  C119  1  0.44230000  0.03940000  0.80782000  1
  C  C120  1  0.45000000  0.01120000  0.65880000  1
  C  C121  1  0.45920000  0.03030000  0.07555000  1
  C  C122  1  0.46060000  0.94230000  0.55782000  1
  C  C123  1  0.46120000  0.97230000  0.62864000  1
  C  C124  1  0.46160000  0.86910000  0.81103000  1
  C  C125  1  0.46950000  0.99130000  0.10795000  1
  C  C126  1  0.46970000  0.95920000  0.82555000  1
  C  C127  1  0.47230000  0.03880000  0.87864000  1
  C  C128  1  0.48880000  0.95000000  0.40880000  1
  C  C129  1  0.49020000  0.91330000  0.16861000  1
  C  C130  1  0.49130000  0.03050000  0.35795000  1
  C  C131  1  0.49490000  0.13500000  0.69954000  1
  C  C132  1  0.50510000  0.86500000  0.19954000  1
  C  C133  1  0.50870000  0.96950000  0.85795000  1
  C  C134  1  0.50980000  0.08670000  0.66861000  1
  C  C135  1  0.51120000  0.05000000  0.90880000  1
  C  C136  1  0.52770000  0.96120000  0.37864000  1
  C  C137  1  0.53030000  0.04080000  0.32555000  1
  C  C138  1  0.53050000  0.00870000  0.60795000  1
  C  C139  1  0.53840000  0.13090000  0.31103000  1
  C  C140  1  0.53880000  0.02770000  0.12864000  1
  C  C141  1  0.53940000  0.05770000  0.05782000  1
  C  C142  1  0.54080000  0.96970000  0.57555000  1
  C  C143  1  0.55000000  0.98880000  0.15880000  1
  C  C144  1  0.55770000  0.96060000  0.30782000  1
  C  C145  1  0.55780000  0.91000000  0.51524000  1
  C  C146  1  0.58160000  0.12070000  0.64779000  1
  C  C147  1  0.58340000  0.90850000  0.86829000  1
  C  C148  1  0.58670000  0.99020000  0.91861000  1
  C  C149  1  0.59000000  0.05780000  0.26524000  1
  C  C150  1  0.59150000  0.08340000  0.61829000  1
  C  C151  1  0.62070000  0.91840000  0.89779000  1
  C  C152  1  0.63090000  0.96160000  0.56103000  1
  C  C153  1  0.63500000  0.00510000  0.94954000  1
  C  C154  1  0.86500000  0.50510000  0.80046000  1
  C  C155  1  0.86910000  0.46160000  0.18897000  1
  C  C156  1  0.87930000  0.41840000  0.85221000  1
  C  C157  1  0.90850000  0.58340000  0.13171000  1
  C  C158  1  0.91000000  0.55780000  0.48476000  1
  C  C159  1  0.91330000  0.49020000  0.83139000  1
  C  C160  1  0.91660000  0.40850000  0.88171000  1
  C  C161  1  0.91840000  0.62070000  0.10221000  1
  C  C162  1  0.94220000  0.41000000  0.23476000  1
  C  C163  1  0.94230000  0.46060000  0.44218000  1
  C  C164  1  0.95000000  0.48880000  0.59120000  1
  C  C165  1  0.95920000  0.46970000  0.17445000  1
  C  C166  1  0.96060000  0.55770000  0.69218000  1
  C  C167  1  0.96120000  0.52770000  0.62136000  1
  C  C168  1  0.96160000  0.63090000  0.43897000  1
  C  C169  1  0.96950000  0.50870000  0.14205000  1
  C  C170  1  0.96970000  0.54080000  0.42445000  1
  C  C171  1  0.97230000  0.46120000  0.37136000  1
  C  C172  1  0.98880000  0.55000000  0.84120000  1
  C  C173  1  0.99020000  0.58670000  0.08139000  1
  C  C174  1  0.99130000  0.46950000  0.89205000  1
  C  C175  1  0.99490000  0.36500000  0.55046000  1
  S  S176  1  0.03958000  0.19980000  0.44926000  1
  S  S177  1  0.11365000  0.21554000  0.05821000  1
  S  S178  1  0.14860000  0.81358000  0.46550000  1
  S  S179  1  0.18642000  0.85140000  0.03450000  1
  S  S180  1  0.19980000  0.03958000  0.55074000  1
  S  S181  1  0.21554000  0.11365000  0.94179000  1
  S  S182  1  0.28446000  0.61365000  0.80821000  1
  S  S183  1  0.30020000  0.53958000  0.19926000  1
  S  S184  1  0.31358000  0.35140000  0.71550000  1
  S  S185  1  0.35140000  0.31358000  0.28450000  1
  S  S186  1  0.38635000  0.71554000  0.69179000  1
  S  S187  1  0.46042000  0.69980000  0.30074000  1
  S  S188  1  0.53958000  0.30020000  0.80074000  1
  S  S189  1  0.61365000  0.28446000  0.19179000  1
  S  S190  1  0.64860000  0.68642000  0.78450000  1
  S  S191  1  0.68642000  0.64860000  0.21550000  1
  S  S192  1  0.69980000  0.46042000  0.69926000  1
  S  S193  1  0.71554000  0.38635000  0.30821000  1
  S  S194  1  0.78446000  0.88635000  0.44179000  1
  S  S195  1  0.80020000  0.96042000  0.05074000  1
  S  S196  1  0.81358000  0.14860000  0.53450000  1
  S  S197  1  0.85140000  0.18642000  0.96550000  1
  S  S198  1  0.88635000  0.78446000  0.55821000  1
  S  S199  1  0.96042000  0.80020000  0.94926000  1
  N  N200  1  0.03088000  0.41230000  0.22213000  1
  N  N201  1  0.06726000  0.36171000  0.96926000  1
  N  N202  1  0.08770000  0.53088000  0.97213000  1
  N  N203  1  0.13829000  0.56726000  0.71926000  1
  N  N204  1  0.36171000  0.06726000  0.03074000  1
  N  N205  1  0.41230000  0.03088000  0.77787000  1
  N  N206  1  0.43274000  0.86171000  0.78074000  1
  N  N207  1  0.46912000  0.91230000  0.52787000  1
  N  N208  1  0.53088000  0.08770000  0.02787000  1
  N  N209  1  0.56726000  0.13829000  0.28074000  1
  N  N210  1  0.58770000  0.96912000  0.27787000  1
  N  N211  1  0.63829000  0.93274000  0.53074000  1
  N  N212  1  0.86171000  0.43274000  0.21926000  1
  N  N213  1  0.91230000  0.46912000  0.47213000  1
  N  N214  1  0.93274000  0.63829000  0.46926000  1
  N  N215  1  0.96912000  0.58770000  0.72213000  1
  O  O216  1  0.00740000  0.24510000  0.47941000  1
  O  O217  1  0.02530000  0.15400000  0.06065000  1
  O  O218  1  0.02830000  0.88163000  0.94168000  1
  O  O219  1  0.03880000  0.27030000  0.42406000  1
  O  O220  1  0.04611000  0.04611000  0.50000000  1
  O  O221  1  0.04860000  0.29220000  0.54446000  1
  O  O222  1  0.06890000  0.60041000  0.03302000  1
  O  O223  1  0.07859000  0.79000000  0.49087000  1
  O  O224  1  0.08610000  0.86700000  0.04517000  1
  O  O225  1  0.09106000  0.09106000  0.00000000  1
  O  O226  1  0.10041000  0.43110000  0.28302000  1
  O  O227  1  0.10330000  0.27848000  0.03024000  1
  O  O228  1  0.11837000  0.97170000  0.55832000  1
  O  O229  1  0.12600000  0.27320000  0.08646000  1
  O  O230  1  0.13300000  0.91390000  0.45483000  1
  O  O231  1  0.13930000  0.16030000  0.45367000  1
  O  O232  1  0.14030000  0.74670000  0.43881000  1
  O  O233  1  0.14950000  0.19830000  0.94609000  1
  O  O234  1  0.15400000  0.02530000  0.93935000  1
  O  O235  1  0.16030000  0.13930000  0.54633000  1
  O  O236  1  0.19640000  0.75210000  0.02088000  1
  O  O237  1  0.19830000  0.14950000  0.05391000  1
  O  O238  1  0.20780000  0.54860000  0.29446000  1
  O  O239  1  0.21000000  0.92141000  0.00913000  1
  O  O240  1  0.22152000  0.60330000  0.78024000  1
  O  O241  1  0.22680000  0.62600000  0.83646000  1
  O  O242  1  0.22970000  0.53880000  0.17406000  1
  O  O243  1  0.24510000  0.00740000  0.52059000  1
  O  O244  1  0.24670000  0.35970000  0.68881000  1
  O  O245  1  0.24790000  0.80360000  0.47912000  1
  O  O246  1  0.25210000  0.30360000  0.27088000  1
  O  O247  1  0.25330000  0.85970000  0.06119000  1
  O  O248  1  0.25490000  0.50740000  0.22941000  1
  O  O249  1  0.27030000  0.03880000  0.57594000  1
  O  O250  1  0.27320000  0.12600000  0.91354000  1
  O  O251  1  0.27848000  0.10330000  0.96976000  1
  O  O252  1  0.29000000  0.42141000  0.74087000  1
  O  O253  1  0.29220000  0.04860000  0.45554000  1
  O  O254  1  0.30170000  0.64950000  0.69609000  1
  O  O255  1  0.30360000  0.25210000  0.72912000  1
  O  O256  1  0.33970000  0.63930000  0.20367000  1
  O  O257  1  0.34600000  0.52530000  0.81065000  1
  O  O258  1  0.35050000  0.69830000  0.80391000  1
  O  O259  1  0.35970000  0.24670000  0.31119000  1
  O  O260  1  0.36070000  0.66030000  0.29633000  1
  O  O261  1  0.36700000  0.41390000  0.29517000  1
  O  O262  1  0.37400000  0.77320000  0.66354000  1
  O  O263  1  0.38163000  0.47170000  0.19168000  1
  O  O264  1  0.39670000  0.77848000  0.71976000  1
  O  O265  1  0.39959000  0.93110000  0.46698000  1
  O  O266  1  0.40894000  0.59106000  0.75000000  1
  O  O267  1  0.41390000  0.36700000  0.70483000  1
  O  O268  1  0.42141000  0.29000000  0.25913000  1
  O  O269  1  0.43110000  0.10041000  0.71698000  1
  O  O270  1  0.45140000  0.79220000  0.20554000  1
  O  O271  1  0.45389000  0.54611000  0.25000000  1
  O  O272  1  0.46120000  0.77030000  0.32594000  1
  O  O273  1  0.47170000  0.38163000  0.80832000  1
  O  O274  1  0.47470000  0.65400000  0.68935000  1
  O  O275  1  0.49260000  0.74510000  0.27059000  1
  O  O276  1  0.50740000  0.25490000  0.77059000  1
  O  O277  1  0.52530000  0.34600000  0.18935000  1
  O  O278  1  0.52830000  0.61837000  0.30832000  1
  O  O279  1  0.53880000  0.22970000  0.82594000  1
  O  O280  1  0.54611000  0.45389000  0.75000000  1
  O  O281  1  0.54860000  0.20780000  0.70554000  1
  O  O282  1  0.56890000  0.89959000  0.21698000  1
  O  O283  1  0.57859000  0.71000000  0.75913000  1
  O  O284  1  0.58610000  0.63300000  0.20483000  1
  O  O285  1  0.59106000  0.40894000  0.25000000  1
  O  O286  1  0.60041000  0.06890000  0.96698000  1
  O  O287  1  0.60330000  0.22152000  0.21976000  1
  O  O288  1  0.61837000  0.52830000  0.69168000  1
  O  O289  1  0.62600000  0.22680000  0.16354000  1
  O  O290  1  0.63300000  0.58610000  0.79517000  1
  O  O291  1  0.63930000  0.33970000  0.79633000  1
  O  O292  1  0.64030000  0.75330000  0.81119000  1
  O  O293  1  0.64950000  0.30170000  0.30391000  1
  O  O294  1  0.65400000  0.47470000  0.31065000  1
  O  O295  1  0.66030000  0.36070000  0.70367000  1
  O  O296  1  0.69640000  0.74790000  0.22912000  1
  O  O297  1  0.69830000  0.35050000  0.19609000  1
  O  O298  1  0.70780000  0.95140000  0.95554000  1
  O  O299  1  0.71000000  0.57859000  0.24087000  1
  O  O300  1  0.72152000  0.89670000  0.46976000  1
  O  O301  1  0.72680000  0.87400000  0.41354000  1
  O  O302  1  0.72970000  0.96120000  0.07594000  1
  O  O303  1  0.74510000  0.49260000  0.72941000  1
  O  O304  1  0.74670000  0.14030000  0.56119000  1
  O  O305  1  0.74790000  0.69640000  0.77088000  1
  O  O306  1  0.75210000  0.19640000  0.97912000  1
  O  O307  1  0.75330000  0.64030000  0.18881000  1
  O  O308  1  0.75490000  0.99260000  0.02059000  1
  O  O309  1  0.77030000  0.46120000  0.67406000  1
  O  O310  1  0.77320000  0.37400000  0.33646000  1
  O  O311  1  0.77848000  0.39670000  0.28024000  1
  O  O312  1  0.79000000  0.07859000  0.50913000  1
  O  O313  1  0.79220000  0.45140000  0.79446000  1
  O  O314  1  0.80170000  0.85050000  0.55391000  1
  O  O315  1  0.80360000  0.24790000  0.52088000  1
  O  O316  1  0.83970000  0.86070000  0.04633000  1
  O  O317  1  0.84600000  0.97470000  0.43935000  1
  O  O318  1  0.85050000  0.80170000  0.44609000  1
  O  O319  1  0.85970000  0.25330000  0.93881000  1
  O  O320  1  0.86070000  0.83970000  0.95367000  1
  O  O321  1  0.86700000  0.08610000  0.95483000  1
  O  O322  1  0.87400000  0.72680000  0.58646000  1
  O  O323  1  0.88163000  0.02830000  0.05832000  1
  O  O324  1  0.89670000  0.72152000  0.53024000  1
  O  O325  1  0.89959000  0.56890000  0.78302000  1
  O  O326  1  0.90894000  0.90894000  0.50000000  1
  O  O327  1  0.91390000  0.13300000  0.54517000  1
  O  O328  1  0.92141000  0.21000000  0.99087000  1
  O  O329  1  0.93110000  0.39959000  0.53302000  1
  O  O330  1  0.95140000  0.70780000  0.04446000  1
  O  O331  1  0.95389000  0.95389000  0.00000000  1
  O  O332  1  0.96120000  0.72970000  0.92406000  1
  O  O333  1  0.97170000  0.11837000  0.44168000  1
  O  O334  1  0.97470000  0.84600000  0.56065000  1
  O  O335  1  0.99260000  0.75490000  0.97941000  1
