# generated using pymatgen
data_ZnH16C27NO4
_symmetry_space_group_name_H-M   'P 1'
_cell_length_a   15.29040000
_cell_length_b   15.29040000
_cell_length_c   17.66749806
_cell_angle_alpha   115.64125469
_cell_angle_beta   115.64031124
_cell_angle_gamma   89.99990000
_symmetry_Int_Tables_number   1
_chemical_formula_structural   ZnH16C27NO4
_chemical_formula_sum   'Zn4 H64 C108 N4 O16'
_cell_volume   3266.81430130
_cell_formula_units_Z   4
loop_
 _symmetry_equiv_pos_site_id
 _symmetry_equiv_pos_as_xyz
  1  'x, y, z'
loop_
 _atom_site_type_symbol
 _atom_site_label
 _atom_site_symmetry_multiplicity
 _atom_site_fract_x
 _atom_site_fract_y
 _atom_site_fract_z
 _atom_site_occupancy
  Zn  Zn0  1  0.05587000  0.05586000  0.11174000  1
  Zn  Zn1  1  0.44421000  0.44423000  0.88846000  1
  Zn  Zn2  1  0.55571000  0.55569000  0.11140000  1
  Zn  Zn3  1  0.94420000  0.94423000  0.88841000  1
  H  H4  1  0.40284000  0.01624000  0.77339000  1
  H  H5  1  0.29116000  0.01872000  0.18045000  1
  H  H6  1  0.43405000  0.03824000  0.08751000  1
  H  H7  1  0.65476000  0.04992000  0.08946000  1
  H  H8  1  0.26270000  0.05360000  0.04615000  1
  H  H9  1  0.45133000  0.06421000  0.31822000  1
  H  H10  1  0.00543000  0.06438000  0.25644000  1
  H  H11  1  0.98113000  0.11043000  0.81929000  1
  H  H12  1  0.93596000  0.13248000  0.68137000  1
  H  H13  1  0.23681000  0.15097000  0.56825000  1
  H  H14  1  0.09095000  0.15114000  0.43261000  1
  H  H15  1  0.54888000  0.15277000  0.08726000  1
  H  H16  1  0.88958000  0.16211000  0.18070000  1
  H  H17  1  0.25103000  0.19205000  0.25645000  1
  H  H18  1  0.46722000  0.19709000  0.87346000  1
  H  H19  1  0.94649000  0.21678000  0.95396000  1
  H  H20  1  0.32642000  0.24190000  0.74469000  1
  H  H21  1  0.05001000  0.24658000  0.68179000  1
  H  H22  1  0.86698000  0.25430000  0.31835000  1
  H  H23  1  0.34166000  0.28148000  0.43263000  1
  H  H24  1  0.49242000  0.28280000  0.04583000  1
  H  H25  1  0.09333000  0.30207000  0.12604000  1
  H  H26  1  0.20972000  0.33916000  0.82014000  1
  H  H27  1  0.96133000  0.34632000  0.91194000  1
  H  H28  1  0.75269000  0.36776000  0.31778000  1
  H  H29  1  0.66046000  0.38940000  0.17956000  1
  H  H30  1  0.33140000  0.41730000  0.56825000  1
  H  H31  1  0.63132000  0.43546000  0.68158000  1
  H  H32  1  0.71664000  0.44618000  0.95345000  1
  H  H33  1  0.06531000  0.45070000  0.91179000  1
  H  H34  1  0.84643000  0.46104000  0.91171000  1
  H  H35  1  0.61018000  0.48111000  0.82001000  1
  H  H36  1  0.12900000  0.48281000  0.22656000  1
  H  H37  1  0.41821000  0.50282000  0.74469000  1
  H  H38  1  0.23687000  0.50735000  0.95365000  1
  H  H39  1  0.32354000  0.53267000  0.12620000  1
  H  H40  1  0.74493000  0.54913000  0.68114000  1
  H  H41  1  0.95056000  0.56558000  0.91180000  1
  H  H42  1  0.75892000  0.58439000  0.25516000  1
  H  H43  1  0.80264000  0.59331000  0.12597000  1
  H  H44  1  0.24319000  0.59721000  0.22664000  1
  H  H45  1  0.98346000  0.62900000  0.22622000  1
  H  H46  1  0.84943000  0.66974000  0.43124000  1
  H  H47  1  0.49624000  0.67073000  0.25515000  1
  H  H48  1  0.40652000  0.67655000  0.87375000  1
  H  H49  1  0.83787000  0.70897000  0.81914000  1
  H  H50  1  0.00739000  0.73711000  0.95373000  1
  H  H51  1  0.65002000  0.73970000  0.56855000  1
  H  H52  1  0.09757000  0.74332000  0.22613000  1
  H  H53  1  0.37078000  0.75717000  0.77354000  1
  H  H54  1  0.58179000  0.76146000  0.43122000  1
  H  H55  1  0.55388000  0.76330000  0.04658000  1
  H  H56  1  0.51897000  0.79013000  0.17978000  1
  H  H57  1  0.03270000  0.82375000  0.12580000  1
  H  H58  1  0.91851000  0.82886000  0.56855000  1
  H  H59  1  0.74054000  0.83041000  0.74461000  1
  H  H60  1  0.25656000  0.87148000  0.77380000  1
  H  H61  1  0.51737000  0.90225000  0.77397000  1
  H  H62  1  0.17634000  0.90702000  0.87432000  1
  H  H63  1  0.00404000  0.91425000  0.74461000  1
  H  H64  1  0.53969000  0.93515000  0.08922000  1
  H  H65  1  0.56495000  0.95008000  0.31789000  1
  H  H66  1  0.69809000  0.96731000  0.87463000  1
  H  H67  1  0.78393000  0.99283000  0.04690000  1
  C  C68  1  0.65052000  0.01945000  0.87383000  1
  C  C69  1  0.48255000  0.04656000  0.81672000  1
  C  C70  1  0.40830000  0.09500000  0.06826000  1
  C  C71  1  0.87711000  0.10344000  0.99958000  1
  C  C72  1  0.31039000  0.10412000  0.04478000  1
  C  C73  1  0.07925000  0.11189000  0.29574000  1
  C  C74  1  0.68974000  0.12280000  0.93050000  1
  C  C75  1  0.10373000  0.12291000  0.00033000  1
  C  C76  1  0.51960000  0.14975000  0.87317000  1
  C  C77  1  0.03777000  0.15453000  0.82157000  1
  C  C78  1  0.47294000  0.15949000  0.06814000  1
  C  C79  1  0.12810000  0.16096000  0.39580000  1
  C  C80  1  0.00976000  0.16896000  0.74230000  1
  C  C81  1  0.80132000  0.17384000  0.00235000  1
  C  C82  1  0.27627000  0.17870000  0.02120000  1
  C  C83  1  0.21651000  0.18383000  0.29575000  1
  C  C84  1  0.62287000  0.18934000  0.93017000  1
  C  C85  1  0.17139000  0.19868000  0.99761000  1
  C  C86  1  0.13390000  0.20095000  0.90136000  1
  C  C87  1  0.84536000  0.21631000  0.17837000  1
  C  C88  1  0.22359000  0.22360000  0.44719000  1
  C  C89  1  0.27556000  0.22828000  0.60506000  1
  C  C90  1  0.79900000  0.23264000  0.09858000  1
  C  C91  1  0.07419000  0.23342000  0.74254000  1
  C  C92  1  0.44051000  0.23396000  0.04467000  1
  C  C93  1  0.26769000  0.23483000  0.39580000  1
  C  C94  1  0.34247000  0.24482000  0.02133000  1
  C  C95  1  0.82121000  0.25510000  0.97869000  1
  C  C96  1  0.89580000  0.26568000  0.95513000  1
  C  C97  1  0.83063000  0.26729000  0.25749000  1
  C  C98  1  0.20081000  0.26786000  0.90160000  1
  C  C99  1  0.27682000  0.27684000  0.55367000  1
  C  C100  1  0.32655000  0.27955000  0.70511000  1
  C  C101  1  0.16776000  0.28458000  0.82205000  1
  C  C102  1  0.73201000  0.29922000  0.09826000  1
  C  C103  1  0.67347000  0.30104000  0.00175000  1
  C  C104  1  0.19235000  0.31027000  0.06951000  1
  C  C105  1  0.75500000  0.32106000  0.97844000  1
  C  C106  1  0.29919000  0.32639000  0.99807000  1
  C  C107  1  0.76606000  0.33138000  0.25716000  1
  C  C108  1  0.90466000  0.33989000  0.93132000  1
  C  C109  1  0.71508000  0.34558000  0.17770000  1
  C  C110  1  0.14603000  0.34956000  0.12651000  1
  C  C111  1  0.60282000  0.37651000  0.99841000  1
  C  C112  1  0.32946000  0.37680000  0.60506000  1
  C  C113  1  0.25915000  0.37706000  0.06970000  1
  C  C114  1  0.76562000  0.39557000  0.95480000  1
  C  C115  1  0.37801000  0.39704000  0.00141000  1
  C  C116  1  0.83998000  0.40446000  0.93118000  1
  C  C117  1  0.37851000  0.42559000  0.70511000  1
  C  C118  1  0.16546000  0.45270000  0.18328000  1
  C  C119  1  0.27662000  0.48035000  0.12667000  1
  C  C120  1  0.66795000  0.50932000  0.74235000  1
  C  C121  1  0.23013000  0.51749000  0.18333000  1
  C  C122  1  0.09121000  0.52674000  0.93122000  1
  C  C123  1  0.65401000  0.53763000  0.82193000  1
  C  C124  1  0.18921000  0.55927000  0.95490000  1
  C  C125  1  0.73214000  0.57354000  0.74211000  1
  C  C126  1  0.02663000  0.59140000  0.93124000  1
  C  C127  1  0.62338000  0.60438000  0.00141000  1
  C  C128  1  0.39561000  0.62192000  0.99846000  1
  C  C129  1  0.72100000  0.62323000  0.29477000  1
  C  C130  1  0.70059000  0.63386000  0.90152000  1
  C  C131  1  0.85004000  0.64608000  0.12642000  1
  C  C132  1  0.22345000  0.65740000  0.97847000  1
  C  C133  1  0.95321000  0.66548000  0.18298000  1
  C  C134  1  0.78350000  0.66719000  0.82143000  1
  C  C135  1  0.57377000  0.67150000  0.29476000  1
  C  C136  1  0.69885000  0.67170000  0.99806000  1
  C  C137  1  0.77237000  0.67251000  0.39482000  1
  C  C138  1  0.05928000  0.68941000  0.95500000  1
  C  C139  1  0.81054000  0.69248000  0.06953000  1
  C  C140  1  0.76726000  0.70053000  0.90128000  1
  C  C141  1  0.32829000  0.70073000  0.00180000  1
  C  C142  1  0.62245000  0.72228000  0.39482000  1
  C  C143  1  0.72324000  0.72323000  0.44648000  1
  C  C144  1  0.35374000  0.72348000  0.87332000  1
  C  C145  1  0.15746000  0.72358000  0.97865000  1
  C  C146  1  0.01781000  0.73021000  0.18291000  1
  C  C147  1  0.30735000  0.74084000  0.93022000  1
  C  C148  1  0.87715000  0.75908000  0.06934000  1
  C  C149  1  0.33431000  0.77014000  0.81679000  1
  C  C150  1  0.67900000  0.77663000  0.02158000  1
  C  C151  1  0.77665000  0.77665000  0.55330000  1
  C  C152  1  0.98048000  0.77669000  0.12625000  1
  C  C153  1  0.72728000  0.77832000  0.60496000  1
  C  C154  1  0.82619000  0.79896000  0.99760000  1
  C  C155  1  0.36622000  0.79907000  0.09830000  1
  C  C156  1  0.24076000  0.80764000  0.93045000  1
  C  C157  1  0.60463000  0.81098000  0.04541000  1
  C  C158  1  0.87767000  0.82666000  0.60496000  1
  C  C159  1  0.20100000  0.82850000  0.00229000  1
  C  C160  1  0.77865000  0.82910000  0.70501000  1
  C  C161  1  0.46253000  0.83214000  0.17782000  1
  C  C162  1  0.26965000  0.83487000  0.81695000  1
  C  C163  1  0.74507000  0.84262000  0.02146000  1
  C  C164  1  0.22322000  0.85419000  0.87366000  1
  C  C165  1  0.29955000  0.86598000  0.09854000  1
  C  C166  1  0.92633000  0.87596000  0.70501000  1
  C  C167  1  0.89658000  0.87744000  0.00032000  1
  C  C168  1  0.12245000  0.89613000  0.99953000  1
  C  C169  1  0.59610000  0.90913000  0.06951000  1
  C  C170  1  0.49100000  0.92584000  0.25722000  1
  C  C171  1  0.73486000  0.94094000  0.04552000  1
  C  C172  1  0.33300000  0.96216000  0.17824000  1
  C  C173  1  0.66086000  0.97372000  0.06963000  1
  C  C174  1  0.54740000  0.98201000  0.81704000  1
  C  C175  1  0.42681000  0.99031000  0.25741000  1
  N  N176  1  0.12389000  0.12387000  0.24777000  1
  N  N177  1  0.37643000  0.37648000  0.75292000  1
  N  N178  1  0.62348000  0.62346000  0.24695000  1
  N  N179  1  0.87641000  0.87645000  0.75284000  1
  O  O180  1  0.86940000  0.03761000  0.91984000  1
  O  O181  1  0.03798000  0.04943000  0.92302000  1
  O  O182  1  0.95052000  0.11487000  0.07698000  1
  O  O183  1  0.11738000  0.13063000  0.07992000  1
  O  O184  1  0.53702000  0.36855000  0.91859000  1
  O  O185  1  0.37433000  0.38584000  0.92423000  1
  O  O186  1  0.61410000  0.45006000  0.07560000  1
  O  O187  1  0.44991000  0.46280000  0.08123000  1
  O  O188  1  0.54987000  0.53842000  0.92425000  1
  O  O189  1  0.38156000  0.55005000  0.91863000  1
  O  O190  1  0.63133000  0.61843000  0.08124000  1
  O  O191  1  0.46152000  0.62556000  0.07563000  1
  O  O192  1  0.88504000  0.87364000  0.92303000  1
  O  O193  1  0.05043000  0.88224000  0.91980000  1
  O  O194  1  0.96255000  0.94928000  0.07993000  1
  O  O195  1  0.12644000  0.96208000  0.07695000  1
