# generated using pymatgen
data_MnH4C7O5
_symmetry_space_group_name_H-M   'P 1'
_cell_length_a   9.05530000
_cell_length_b   9.05530000
_cell_length_c   10.88720000
_cell_angle_alpha   90.00000000
_cell_angle_beta   90.00000000
_cell_angle_gamma   120.00000000
_symmetry_Int_Tables_number   1
_chemical_formula_structural   MnH4C7O5
_chemical_formula_sum   'Mn3 H12 C21 O15'
_cell_volume   773.12998760
_cell_formula_units_Z   3
loop_
 _symmetry_equiv_pos_site_id
 _symmetry_equiv_pos_as_xyz
  1  'x, y, z'
loop_
 _atom_site_type_symbol
 _atom_site_label
 _atom_site_symmetry_multiplicity
 _atom_site_fract_x
 _atom_site_fract_y
 _atom_site_fract_z
 _atom_site_occupancy
  Mn  Mn0  1  0.00000000  0.03000000  0.83333000  1
  Mn  Mn1  1  0.97000000  0.97000000  0.50000000  1
  Mn  Mn2  1  0.03000000  1.00000000  0.16667000  1
  H  H3  1  0.92570000  0.41120000  0.51050000  1
  H  H4  1  0.87300000  0.62600000  0.59700000  1
  H  H5  1  0.75300000  0.12700000  0.93033000  1
  H  H6  1  0.62600000  0.87300000  0.40300000  1
  H  H7  1  0.58880000  0.51450000  0.17717000  1
  H  H8  1  0.51450000  0.58880000  0.82283000  1
  H  H9  1  0.48550000  0.07430000  0.84383000  1
  H  H10  1  0.41120000  0.92570000  0.48950000  1
  H  H11  1  0.37400000  0.24700000  0.26367000  1
  H  H12  1  0.24700000  0.37400000  0.73633000  1
  H  H13  1  0.12700000  0.75300000  0.06967000  1
  H  H14  1  0.07430000  0.48550000  0.15617000  1
  C  C15  1  0.00000000  0.25980000  0.33333333  1
  C  C16  1  0.00000000  0.42450000  0.33333333  1
  C  C17  1  0.00000000  0.73070000  0.33333333  1
  C  C18  1  0.95390000  0.47670000  0.43935000  1
  C  C19  1  0.95070000  0.62720000  0.43754000  1
  C  C20  1  0.74020000  0.74020000  1.00000000  1
  C  C21  1  0.73070000  0.00000000  0.66666667  1
  C  C22  1  0.67650000  0.04930000  0.77087000  1
  C  C23  1  0.62720000  0.95070000  0.56246000  1
  C  C24  1  0.57550000  0.57550000  1.00000000  1
  C  C25  1  0.52330000  0.47720000  0.10602000  1
  C  C26  1  0.52280000  0.04610000  0.77268000  1
  C  C27  1  0.47720000  0.52330000  0.89398000  1
  C  C28  1  0.47670000  0.95390000  0.56065000  1
  C  C29  1  0.42450000  0.00000000  0.66666667  1
  C  C30  1  0.37280000  0.32350000  0.10421000  1
  C  C31  1  0.32350000  0.37280000  0.89579000  1
  C  C32  1  0.26930000  0.26930000  1.00000000  1
  C  C33  1  0.25980000  0.00000000  0.66666667  1
  C  C34  1  0.04930000  0.67650000  0.22913000  1
  C  C35  1  0.04610000  0.52280000  0.22732000  1
  O  O36  1  0.00000000  0.87730000  0.33333333  1
  O  O37  1  0.95500000  0.17230000  0.23616000  1
  O  O38  1  0.90160000  0.69030000  0.53484000  1
  O  O39  1  0.87730000  1.00000000  0.66666667  1
  O  O40  1  0.82770000  0.78270000  0.90282000  1
  O  O41  1  0.78870000  0.09840000  0.86817000  1
  O  O42  1  0.78270000  0.82770000  0.09718000  1
  O  O43  1  0.69030000  0.90160000  0.46516000  1
  O  O44  1  0.30970000  0.21130000  0.20151000  1
  O  O45  1  0.21730000  0.04500000  0.56949000  1
  O  O46  1  0.21130000  0.30970000  0.79849000  1
  O  O47  1  0.17230000  0.95500000  0.76384000  1
  O  O48  1  0.12270000  0.12270000  1.00000000  1
  O  O49  1  0.09840000  0.78870000  0.13183000  1
  O  O50  1  0.04500000  0.21730000  0.43051000  1
