# generated using pymatgen
data_EuH4C12(SO4)2
_symmetry_space_group_name_H-M   'P 1'
_cell_length_a   11.57760000
_cell_length_b   12.03260000
_cell_length_c   16.29840000
_cell_angle_alpha   90.00000000
_cell_angle_beta   90.00000000
_cell_angle_gamma   112.50000000
_symmetry_Int_Tables_number   1
_chemical_formula_structural   EuH4C12(SO4)2
_chemical_formula_sum   'Eu4 H16 C48 S8 O32'
_cell_volume   2097.67565829
_cell_formula_units_Z   4
loop_
 _symmetry_equiv_pos_site_id
 _symmetry_equiv_pos_as_xyz
  1  'x, y, z'
loop_
 _atom_site_type_symbol
 _atom_site_label
 _atom_site_symmetry_multiplicity
 _atom_site_fract_x
 _atom_site_fract_y
 _atom_site_fract_z
 _atom_site_occupancy
  Eu  Eu0  1  0.80580000  0.42190000  0.97278000  1
  Eu  Eu1  1  0.80580000  0.92190000  0.52722000  1
  Eu  Eu2  1  0.19420000  0.07810000  0.47278000  1
  Eu  Eu3  1  0.19420000  0.57810000  0.02722000  1
  H  H4  1  0.77210000  0.71370000  0.35180000  1
  H  H5  1  0.77210000  0.21370000  0.14820000  1
  H  H6  1  0.74160000  0.09430000  0.27320000  1
  H  H7  1  0.74160000  0.59430000  0.22680000  1
  H  H8  1  0.66340000  0.05640000  0.75630000  1
  H  H9  1  0.66340000  0.55640000  0.74370000  1
  H  H10  1  0.54670000  0.50400000  0.87150000  1
  H  H11  1  0.54670000  0.00400000  0.62850000  1
  H  H12  1  0.45330000  0.99600000  0.37150000  1
  H  H13  1  0.45330000  0.49600000  0.12850000  1
  H  H14  1  0.33660000  0.44360000  0.25630000  1
  H  H15  1  0.33660000  0.94360000  0.24370000  1
  H  H16  1  0.25840000  0.40570000  0.77320000  1
  H  H17  1  0.25840000  0.90570000  0.72680000  1
  H  H18  1  0.22790000  0.78630000  0.85180000  1
  H  H19  1  0.22790000  0.28630000  0.64820000  1
  C  C20  1  0.98450000  0.67170000  0.91720000  1
  C  C21  1  0.98450000  0.17170000  0.58280000  1
  C  C22  1  0.95850000  0.74890000  0.34780000  1
  C  C23  1  0.95850000  0.24890000  0.15220000  1
  C  C24  1  0.94880000  0.06870000  0.35270000  1
  C  C25  1  0.94880000  0.56870000  0.14730000  1
  C  C26  1  0.92860000  0.12920000  0.27800000  1
  C  C27  1  0.92860000  0.62920000  0.22200000  1
  C  C28  1  0.83630000  0.70170000  0.32380000  1
  C  C29  1  0.83630000  0.20170000  0.17620000  1
  C  C30  1  0.81890000  0.63300000  0.25170000  1
  C  C31  1  0.81890000  0.13300000  0.24830000  1
  C  C32  1  0.66780000  0.26210000  0.84770000  1
  C  C33  1  0.66780000  0.76210000  0.65230000  1
  C  C34  1  0.61650000  0.59760000  0.76480000  1
  C  C35  1  0.61650000  0.09760000  0.73520000  1
  C  C36  1  0.60600000  0.19680000  0.77230000  1
  C  C37  1  0.60600000  0.69680000  0.72770000  1
  C  C38  1  0.59890000  0.87070000  0.42550000  1
  C  C39  1  0.59890000  0.37070000  0.07450000  1
  C  C40  1  0.54800000  0.56680000  0.83780000  1
  C  C41  1  0.54800000  0.06680000  0.66220000  1
  C  C42  1  0.51570000  0.86270000  0.35420000  1
  C  C43  1  0.51570000  0.36270000  0.14580000  1
  C  C44  1  0.48430000  0.63730000  0.85420000  1
  C  C45  1  0.48430000  0.13730000  0.64580000  1
  C  C46  1  0.45200000  0.93320000  0.33780000  1
  C  C47  1  0.45200000  0.43320000  0.16220000  1
  C  C48  1  0.40110000  0.62930000  0.92550000  1
  C  C49  1  0.40110000  0.12930000  0.57450000  1
  C  C50  1  0.39400000  0.30320000  0.27230000  1
  C  C51  1  0.39400000  0.80320000  0.22770000  1
  C  C52  1  0.38350000  0.90240000  0.26480000  1
  C  C53  1  0.38350000  0.40240000  0.23520000  1
  C  C54  1  0.33220000  0.23790000  0.34770000  1
  C  C55  1  0.33220000  0.73790000  0.15230000  1
  C  C56  1  0.18110000  0.86700000  0.75170000  1
  C  C57  1  0.18110000  0.36700000  0.74830000  1
  C  C58  1  0.16370000  0.79830000  0.82380000  1
  C  C59  1  0.16370000  0.29830000  0.67620000  1
  C  C60  1  0.07140000  0.37080000  0.77800000  1
  C  C61  1  0.07140000  0.87080000  0.72200000  1
  C  C62  1  0.05120000  0.43130000  0.85270000  1
  C  C63  1  0.05120000  0.93130000  0.64730000  1
  C  C64  1  0.04150000  0.75110000  0.84780000  1
  C  C65  1  0.04150000  0.25110000  0.65220000  1
  C  C66  1  0.01550000  0.82830000  0.41720000  1
  C  C67  1  0.01550000  0.32830000  0.08280000  1
  S  S68  1  0.94630000  0.78859000  0.78177000  1
  S  S69  1  0.94630000  0.28859000  0.71823000  1
  S  S70  1  0.51031000  0.74847000  0.78276000  1
  S  S71  1  0.51031000  0.24847000  0.71724000  1
  S  S72  1  0.48969000  0.75153000  0.28276000  1
  S  S73  1  0.48969000  0.25153000  0.21724000  1
  S  S74  1  0.05370000  0.71141000  0.28177000  1
  S  S75  1  0.05370000  0.21141000  0.21823000  1
  O  O76  1  0.94410000  0.43240000  0.86290000  1
  O  O77  1  0.94410000  0.93240000  0.63710000  1
  O  O78  1  0.94240000  0.84600000  0.46910000  1
  O  O79  1  0.94240000  0.34600000  0.03090000  1
  O  O80  1  0.86710000  0.62280000  0.92190000  1
  O  O81  1  0.86710000  0.12280000  0.57810000  1
  O  O82  1  0.85660000  0.02270000  0.39950000  1
  O  O83  1  0.85660000  0.52270000  0.10050000  1
  O  O84  1  0.72490000  0.21900000  0.89580000  1
  O  O85  1  0.72490000  0.71900000  0.60420000  1
  O  O86  1  0.65860000  0.36130000  0.86060000  1
  O  O87  1  0.65860000  0.86130000  0.63940000  1
  O  O88  1  0.64580000  0.79160000  0.43320000  1
  O  O89  1  0.64580000  0.29160000  0.06680000  1
  O  O90  1  0.62130000  0.95670000  0.47590000  1
  O  O91  1  0.62130000  0.45670000  0.02410000  1
  O  O92  1  0.37870000  0.54330000  0.97590000  1
  O  O93  1  0.37870000  0.04330000  0.52410000  1
  O  O94  1  0.35420000  0.70840000  0.93320000  1
  O  O95  1  0.35420000  0.20840000  0.56680000  1
  O  O96  1  0.34140000  0.13870000  0.36060000  1
  O  O97  1  0.34140000  0.63870000  0.13940000  1
  O  O98  1  0.27510000  0.28100000  0.39580000  1
  O  O99  1  0.27510000  0.78100000  0.10420000  1
  O  O100  1  0.14340000  0.47730000  0.89950000  1
  O  O101  1  0.14340000  0.97730000  0.60050000  1
  O  O102  1  0.13290000  0.87720000  0.42190000  1
  O  O103  1  0.13290000  0.37720000  0.07810000  1
  O  O104  1  0.05760000  0.65400000  0.96910000  1
  O  O105  1  0.05760000  0.15400000  0.53090000  1
  O  O106  1  0.05590000  0.06760000  0.36290000  1
  O  O107  1  0.05590000  0.56760000  0.13710000  1
