# generated using pymatgen
data_CuH13C12(NO2)2
_symmetry_space_group_name_H-M   'P 1'
_cell_length_a   8.53950000
_cell_length_b   13.18620000
_cell_length_c   15.76578601
_cell_angle_alpha   114.72039105
_cell_angle_beta   91.50783971
_cell_angle_gamma   90.00000000
_symmetry_Int_Tables_number   1
_chemical_formula_structural   CuH13C12(NO2)2
_chemical_formula_sum   'Cu4 H52 C48 N8 O16'
_cell_volume   1611.91874770
_cell_formula_units_Z   4
loop_
 _symmetry_equiv_pos_site_id
 _symmetry_equiv_pos_as_xyz
  1  'x, y, z'
loop_
 _atom_site_type_symbol
 _atom_site_label
 _atom_site_symmetry_multiplicity
 _atom_site_fract_x
 _atom_site_fract_y
 _atom_site_fract_z
 _atom_site_occupancy
  C  C0  1  0.10320000  0.48284000  0.90488000  1
  C  C1  1  0.60320000  0.42204000  0.90488000  1
  C  C2  1  0.10800000  0.59457000  0.90414000  1
  C  C3  1  0.60800000  0.30957000  0.90414000  1
  C  C4  1  0.68520000  0.43912000  0.82884000  1
  C  C5  1  0.18520000  0.38972000  0.82884000  1
  C  C6  1  0.68410000  0.54103000  0.82366000  1
  C  C7  1  0.18410000  0.28263000  0.82366000  1
  C  C8  1  0.26300000  0.40733000  0.76026000  1
  C  C9  1  0.76300000  0.35293000  0.76026000  1
  C  C10  1  0.76100000  0.55335000  0.75290000  1
  C  C11  1  0.26100000  0.19955000  0.75290000  1
  C  C12  1  0.83930000  0.37226000  0.69212000  1
  C  C13  1  0.33930000  0.31986000  0.69212000  1
  C  C14  1  0.42560000  0.60169000  0.62558000  1
  C  C15  1  0.92560000  0.02389000  0.62558000  1
  C  C16  1  0.38040000  0.78346000  0.61032000  1
  C  C17  1  0.88040000  0.82686000  0.61032000  1
  C  C18  1  0.49240000  0.68636000  0.59252000  1
  C  C19  1  0.99240000  0.90616000  0.59252000  1
  C  C20  1  0.26820000  0.55524000  0.57968000  1
  C  C21  1  0.76820000  0.02444000  0.57968000  1
  C  C22  1  0.93040000  0.70556000  0.57172000  1
  C  C23  1  0.43040000  0.86616000  0.57172000  1
  C  C24  1  0.06960000  0.29444000  0.42828000  1
  C  C25  1  0.56960000  0.13384000  0.42828000  1
  C  C26  1  0.73180000  0.44476000  0.42032000  1
  C  C27  1  0.23180000  0.97556000  0.42032000  1
  C  C28  1  0.50760000  0.31364000  0.40748000  1
  C  C29  1  0.00760000  0.09384000  0.40748000  1
  C  C30  1  0.61960000  0.21654000  0.38968000  1
  C  C31  1  0.11960000  0.17314000  0.38968000  1
  C  C32  1  0.57440000  0.39831000  0.37442000  1
  C  C33  1  0.07440000  0.97611000  0.37442000  1
  C  C34  1  0.16070000  0.62774000  0.30788000  1
  C  C35  1  0.66070000  0.68014000  0.30788000  1
  C  C36  1  0.23900000  0.44665000  0.24710000  1
  C  C37  1  0.73900000  0.80045000  0.24710000  1
  C  C38  1  0.73700000  0.59267000  0.23974000  1
  C  C39  1  0.23700000  0.64707000  0.23974000  1
  C  C40  1  0.31590000  0.45897000  0.17634000  1
  C  C41  1  0.81590000  0.71737000  0.17634000  1
  C  C42  1  0.31480000  0.56088000  0.17116000  1
  C  C43  1  0.81480000  0.61028000  0.17116000  1
  C  C44  1  0.89200000  0.40543000  0.09586000  1
  C  C45  1  0.39200000  0.69043000  0.09586000  1
  C  C46  1  0.89680000  0.51716000  0.09512000  1
  C  C47  1  0.39680000  0.57796000  0.09512000  1
  Cu  Cu48  1  0.95252000  0.49344000  0.57618000  1
  Cu  Cu49  1  0.45252000  0.08274000  0.57618000  1
  Cu  Cu50  1  0.04748000  0.50656000  0.42382000  1
  Cu  Cu51  1  0.54748000  0.91726000  0.42382000  1
  H  H52  1  0.05180000  0.64630000  0.95620000  1
  H  H53  1  0.55180000  0.30990000  0.95620000  1
  H  H54  1  0.21490000  0.61930000  0.90880000  1
  H  H55  1  0.71490000  0.28950000  0.90880000  1
  H  H56  1  0.63180000  0.60110000  0.86780000  1
  H  H57  1  0.13180000  0.26670000  0.86780000  1
  H  H58  1  0.06050000  0.59060000  0.84700000  1
  H  H59  1  0.56050000  0.25640000  0.84700000  1
  H  H60  1  0.26390000  0.47770000  0.76000000  1
  H  H61  1  0.76390000  0.28230000  0.76000000  1
  H  H62  1  0.75690000  0.62210000  0.74960000  1
  H  H63  1  0.25690000  0.12750000  0.74960000  1
  H  H64  1  0.41470000  0.63750000  0.69280000  1
  H  H65  1  0.91470000  0.05530000  0.69280000  1
  H  H66  1  0.36880000  0.82360000  0.67720000  1
  H  H67  1  0.86880000  0.85360000  0.67720000  1
  H  H68  1  0.39140000  0.33320000  0.64660000  1
  H  H69  1  0.89140000  0.31340000  0.64660000  1
  H  H70  1  0.59170000  0.71520000  0.62500000  1
  H  H71  1  0.09170000  0.90980000  0.62500000  1
  H  H72  1  0.49850000  0.54070000  0.61160000  1
  H  H73  1  0.99850000  0.07090000  0.61160000  1
  H  H74  1  0.27840000  0.75300000  0.58320000  1
  H  H75  1  0.77840000  0.83020000  0.58320000  1
  H  H76  1  0.51180000  0.64910000  0.52620000  1
  H  H77  1  0.01180000  0.87710000  0.52620000  1
  H  H78  1  0.48820000  0.35090000  0.47380000  1
  H  H79  1  0.98820000  0.12290000  0.47380000  1
  H  H80  1  0.72160000  0.24700000  0.41680000  1
  H  H81  1  0.22160000  0.16980000  0.41680000  1
  H  H82  1  0.50150000  0.45930000  0.38840000  1
  H  H83  1  0.00150000  0.92910000  0.38840000  1
  H  H84  1  0.40830000  0.28480000  0.37500000  1
  H  H85  1  0.90830000  0.09020000  0.37500000  1
  H  H86  1  0.60860000  0.66680000  0.35340000  1
  H  H87  1  0.10860000  0.68660000  0.35340000  1
  H  H88  1  0.63120000  0.17640000  0.32280000  1
  H  H89  1  0.13120000  0.14640000  0.32280000  1
  H  H90  1  0.58530000  0.36250000  0.30720000  1
  H  H91  1  0.08530000  0.94470000  0.30720000  1
  H  H92  1  0.24310000  0.37790000  0.25040000  1
  H  H93  1  0.74310000  0.87250000  0.25040000  1
  H  H94  1  0.73610000  0.52230000  0.24000000  1
  H  H95  1  0.23610000  0.71770000  0.24000000  1
  H  H96  1  0.93950000  0.40940000  0.15300000  1
  H  H97  1  0.43950000  0.74360000  0.15300000  1
  H  H98  1  0.36820000  0.39890000  0.13220000  1
  H  H99  1  0.86820000  0.73330000  0.13220000  1
  H  H100  1  0.78510000  0.38070000  0.09120000  1
  H  H101  1  0.28510000  0.71050000  0.09120000  1
  H  H102  1  0.94820000  0.35370000  0.04380000  1
  H  H103  1  0.44820000  0.69010000  0.04380000  1
  N  N104  1  0.53690000  0.50853000  0.96406000  1
  N  N105  1  0.03690000  0.45553000  0.96406000  1
  N  N106  1  0.84160000  0.47123000  0.68866000  1
  N  N107  1  0.34160000  0.21743000  0.68866000  1
  N  N108  1  0.15840000  0.52877000  0.31134000  1
  N  N109  1  0.65840000  0.78257000  0.31134000  1
  N  N110  1  0.46310000  0.49147000  0.03594000  1
  N  N111  1  0.96310000  0.54447000  0.03594000  1
  O  O112  1  0.16710000  0.53631000  0.62882000  1
  O  O113  1  0.66710000  0.09251000  0.62882000  1
  O  O114  1  0.90980000  0.65475000  0.62190000  1
  O  O115  1  0.40980000  0.96715000  0.62190000  1
  O  O116  1  0.01390000  0.33539000  0.50838000  1
  O  O117  1  0.51390000  0.17299000  0.50838000  1
  O  O118  1  0.75270000  0.46040000  0.50400000  1
  O  O119  1  0.25270000  0.04360000  0.50400000  1
  O  O120  1  0.24730000  0.53960000  0.49600000  1
  O  O121  1  0.74730000  0.95640000  0.49600000  1
  O  O122  1  0.98610000  0.66461000  0.49162000  1
  O  O123  1  0.48610000  0.82701000  0.49162000  1
  O  O124  1  0.09020000  0.34525000  0.37810000  1
  O  O125  1  0.59020000  0.03285000  0.37810000  1
  O  O126  1  0.83290000  0.46369000  0.37118000  1
  O  O127  1  0.33290000  0.90749000  0.37118000  1
