# generated using pymatgen
data_CoPH2C2O7
_symmetry_space_group_name_H-M   'P 1'
_cell_length_a   7.41040000
_cell_length_b   8.87490000
_cell_length_c   15.23330000
_cell_angle_alpha   102.17200000
_cell_angle_beta   90.00000000
_cell_angle_gamma   90.00000000
_symmetry_Int_Tables_number   1
_chemical_formula_structural   CoPH2C2O7
_chemical_formula_sum   'Co4 P4 H8 C8 O28'
_cell_volume   979.31936928
_cell_formula_units_Z   4
loop_
 _symmetry_equiv_pos_site_id
 _symmetry_equiv_pos_as_xyz
  1  'x, y, z'
loop_
 _atom_site_type_symbol
 _atom_site_label
 _atom_site_symmetry_multiplicity
 _atom_site_fract_x
 _atom_site_fract_y
 _atom_site_fract_z
 _atom_site_occupancy
  Co  Co0  1  0.52945000  0.78969000  0.10589000  1
  Co  Co1  1  0.02945000  0.71031000  0.39411000  1
  Co  Co2  1  0.97055000  0.28969000  0.60589000  1
  Co  Co3  1  0.47055000  0.21031000  0.89411000  1
  P  P4  1  0.88556000  0.87064000  0.23356000  1
  P  P5  1  0.38556000  0.62936000  0.26644000  1
  P  P6  1  0.61444000  0.37064000  0.73356000  1
  P  P7  1  0.11444000  0.12936000  0.76644000  1
  H  H8  1  0.94540000  0.99600000  0.28450000  1
  H  H9  1  0.12420000  0.79990000  0.18120000  1
  H  H10  1  0.62420000  0.70010000  0.31880000  1
  H  H11  1  0.44540000  0.50400000  0.21550000  1
  H  H12  1  0.55460000  0.49600000  0.78450000  1
  H  H13  1  0.37580000  0.29990000  0.68120000  1
  H  H14  1  0.87580000  0.20010000  0.81880000  1
  H  H15  1  0.05460000  0.00400000  0.71550000  1
  C  C16  1  0.91030000  0.97700000  0.51968000  1
  C  C17  1  0.57550000  0.95830000  0.96940000  1
  C  C18  1  0.07550000  0.54170000  0.53060000  1
  C  C19  1  0.41030000  0.52300000  0.98032000  1
  C  C20  1  0.58970000  0.47700000  0.01968000  1
  C  C21  1  0.92450000  0.45830000  0.46940000  1
  C  C22  1  0.42450000  0.04170000  0.03060000  1
  C  C23  1  0.08970000  0.02300000  0.48032000  1
  O  O24  1  0.38780000  0.99412000  0.10056000  1
  O  O25  1  0.16120000  0.92537000  0.41894000  1
  O  O26  1  0.71650000  0.91137000  0.19059000  1
  O  O27  1  0.65170000  0.84840000  0.99400000  1
  O  O28  1  0.85150000  0.84502000  0.48795000  1
  O  O29  1  0.02850000  0.81810000  0.15844000  1
  O  O30  1  0.86440000  0.75340000  0.29171000  1
  O  O31  1  0.36440000  0.74660000  0.20829000  1
  O  O32  1  0.52850000  0.68190000  0.34156000  1
  O  O33  1  0.35150000  0.65498000  0.01205000  1
  O  O34  1  0.15170000  0.65160000  0.50600000  1
  O  O35  1  0.21650000  0.58863000  0.30941000  1
  O  O36  1  0.66120000  0.57463000  0.08106000  1
  O  O37  1  0.88780000  0.50588000  0.39944000  1
  O  O38  1  0.11220000  0.49412000  0.60056000  1
  O  O39  1  0.33880000  0.42537000  0.91894000  1
  O  O40  1  0.78350000  0.41137000  0.69059000  1
  O  O41  1  0.84830000  0.34840000  0.49400000  1
  O  O42  1  0.64850000  0.34502000  0.98795000  1
  O  O43  1  0.47150000  0.31810000  0.65844000  1
  O  O44  1  0.63560000  0.25340000  0.79171000  1
  O  O45  1  0.13560000  0.24660000  0.70829000  1
  O  O46  1  0.97150000  0.18190000  0.84156000  1
  O  O47  1  0.14850000  0.15498000  0.51205000  1
  O  O48  1  0.34830000  0.15160000  0.00600000  1
  O  O49  1  0.28350000  0.08863000  0.80941000  1
  O  O50  1  0.83880000  0.07463000  0.58106000  1
  O  O51  1  0.61220000  0.00588000  0.89944000  1
