# generated using pymatgen
data_Cu2H36C47O10
_symmetry_space_group_name_H-M   'P 1'
_cell_length_a   14.60310000
_cell_length_b   14.60310000
_cell_length_c   18.80400000
_cell_angle_alpha   90.66430000
_cell_angle_beta   90.66430000
_cell_angle_gamma   90.67420000
_symmetry_Int_Tables_number   1
_chemical_formula_structural   Cu2H36C47O10
_chemical_formula_sum   'Cu4 H72 C94 O20'
_cell_volume   4009.13991077
_cell_formula_units_Z   2
loop_
 _symmetry_equiv_pos_site_id
 _symmetry_equiv_pos_as_xyz
  1  'x, y, z'
loop_
 _atom_site_type_symbol
 _atom_site_label
 _atom_site_symmetry_multiplicity
 _atom_site_fract_x
 _atom_site_fract_y
 _atom_site_fract_z
 _atom_site_occupancy
  Cu  Cu0  1  0.52508000  0.54806000  0.94468000  1
  Cu  Cu1  1  0.54806000  0.52508000  0.44468000  1
  Cu  Cu2  1  0.45194000  0.47492000  0.55532000  1
  Cu  Cu3  1  0.47492000  0.45194000  0.05532000  1
  H  H4  1  0.58340000  0.99940000  0.68740000  1
  H  H5  1  0.96690000  0.98110000  0.14550000  1
  H  H6  1  0.10950000  0.97750000  0.80340000  1
  H  H7  1  0.08460000  0.97600000  0.67370000  1
  H  H8  1  0.58550000  0.97210000  0.27310000  1
  H  H9  1  0.98110000  0.96690000  0.64550000  1
  H  H10  1  0.44610000  0.96450000  0.79130000  1
  H  H11  1  0.36490000  0.94590000  0.07710000  1
  H  H12  1  0.44840000  0.92580000  0.71140000  1
  H  H13  1  0.43940000  0.91540000  0.26100000  1
  H  H14  1  0.02400000  0.91540000  0.82630000  1
  H  H15  1  0.12100000  0.90520000  0.16410000  1
  H  H16  1  0.02250000  0.89050000  0.69660000  1
  H  H17  1  0.86480000  0.88860000  0.69340000  1
  H  H18  1  0.74870000  0.88130000  0.59890000  1
  H  H19  1  0.09480000  0.87900000  0.33590000  1
  H  H20  1  0.88860000  0.86480000  0.19340000  1
  H  H21  1  0.43060000  0.82080000  0.01850000  1
  H  H22  1  0.61130000  0.80110000  0.77070000  1
  H  H23  1  0.22840000  0.77500000  0.29630000  1
  H  H24  1  0.22500000  0.77160000  0.20370000  1
  H  H25  1  0.67500000  0.76620000  0.53070000  1
  H  H26  1  0.88130000  0.74870000  0.09890000  1
  H  H27  1  0.35160000  0.70980000  0.35690000  1
  H  H28  1  0.54080000  0.68480000  0.70410000  1
  H  H29  1  0.76620000  0.67500000  0.03070000  1
  H  H30  1  0.29020000  0.64840000  0.14310000  1
  H  H31  1  0.05410000  0.63510000  0.42290000  1
  H  H32  1  0.80110000  0.61130000  0.27070000  1
  H  H33  1  0.97210000  0.58550000  0.77310000  1
  H  H34  1  0.99940000  0.58340000  0.18740000  1
  H  H35  1  0.17920000  0.56940000  0.48150000  1
  H  H36  1  0.08460000  0.56060000  0.23900000  1
  H  H37  1  0.03550000  0.55390000  0.70870000  1
  H  H38  1  0.07420000  0.55160000  0.78860000  1
  H  H39  1  0.68480000  0.54080000  0.20410000  1
  H  H40  1  0.31520000  0.45920000  0.79590000  1
  H  H41  1  0.92580000  0.44840000  0.21140000  1
  H  H42  1  0.96450000  0.44610000  0.29130000  1
  H  H43  1  0.91540000  0.43940000  0.76100000  1
  H  H44  1  0.82080000  0.43060000  0.51850000  1
  H  H45  1  0.00060000  0.41660000  0.81260000  1
  H  H46  1  0.02790000  0.41450000  0.22690000  1
  H  H47  1  0.19890000  0.38870000  0.72930000  1
  H  H48  1  0.94590000  0.36490000  0.57710000  1
  H  H49  1  0.70980000  0.35160000  0.85690000  1
  H  H50  1  0.23380000  0.32500000  0.96930000  1
  H  H51  1  0.45920000  0.31520000  0.29590000  1
  H  H52  1  0.64840000  0.29020000  0.64310000  1
  H  H53  1  0.11870000  0.25130000  0.90110000  1
  H  H54  1  0.32500000  0.23380000  0.46930000  1
  H  H55  1  0.77500000  0.22840000  0.79630000  1
  H  H56  1  0.77160000  0.22500000  0.70370000  1
  H  H57  1  0.38870000  0.19890000  0.22930000  1
  H  H58  1  0.56940000  0.17920000  0.98150000  1
  H  H59  1  0.11140000  0.13520000  0.80660000  1
  H  H60  1  0.90520000  0.12100000  0.66410000  1
  H  H61  1  0.25130000  0.11870000  0.40110000  1
  H  H62  1  0.13520000  0.11140000  0.30660000  1
  H  H63  1  0.97750000  0.10950000  0.30340000  1
  H  H64  1  0.87900000  0.09480000  0.83590000  1
  H  H65  1  0.97600000  0.08460000  0.17370000  1
  H  H66  1  0.56060000  0.08460000  0.73900000  1
  H  H67  1  0.55160000  0.07420000  0.28860000  1
  H  H68  1  0.63510000  0.05410000  0.92290000  1
  H  H69  1  0.55390000  0.03550000  0.20870000  1
  H  H70  1  0.01890000  0.03310000  0.35450000  1
  H  H71  1  0.41450000  0.02790000  0.72690000  1
  H  H72  1  0.91540000  0.02400000  0.32630000  1
  H  H73  1  0.89050000  0.02250000  0.19660000  1
  H  H74  1  0.03310000  0.01890000  0.85450000  1
  H  H75  1  0.41660000  0.00060000  0.31260000  1
  C  C76  1  0.88750000  0.99410000  0.76130000  1
  C  C77  1  0.00950000  0.99050000  0.25000000  1
  C  C78  1  0.44170000  0.98290000  0.26580000  1
  C  C79  1  0.69840000  0.98240000  0.77920000  1
  C  C80  1  0.45730000  0.98030000  0.74170000  1
  C  C81  1  0.04390000  0.97750000  0.81420000  1
  C  C82  1  0.02250000  0.95610000  0.68580000  1
  C  C83  1  0.25040000  0.95020000  0.18400000  1
  C  C84  1  0.15630000  0.94770000  0.19170000  1
  C  C85  1  0.83510000  0.92950000  0.72510000  1
  C  C86  1  0.74100000  0.92160000  0.73300000  1
  C  C87  1  0.99410000  0.88750000  0.26130000  1
  C  C88  1  0.35010000  0.88550000  0.09170000  1
  C  C89  1  0.29230000  0.87290000  0.14490000  1
  C  C90  1  0.69165000  0.85133000  0.69150000  1
  C  C91  1  0.05230000  0.84370000  0.30830000  1
  C  C92  1  0.70680000  0.84092000  0.62130000  1
  C  C93  1  0.92950000  0.83510000  0.22510000  1
  C  C94  1  0.39010000  0.80990000  0.05670000  1
  C  C95  1  0.62630000  0.79330000  0.72200000  1
  C  C96  1  0.26720000  0.78180000  0.16650000  1
  C  C97  1  0.66268000  0.77222000  0.58000000  1
  C  C98  1  0.04980000  0.74960000  0.31600000  1
  C  C99  1  0.92160000  0.74100000  0.23300000  1
  C  C100  1  0.21820000  0.73280000  0.33350000  1
  C  C101  1  0.58349000  0.72469000  0.68210000  1
  C  C102  1  0.37205000  0.72065000  0.07620000  1
  C  C103  1  0.60186000  0.71416000  0.61172000  1
  C  C104  1  0.30730000  0.70910000  0.13050000  1
  C  C105  1  0.12710000  0.70770000  0.35510000  1
  C  C106  1  0.84092000  0.70680000  0.12130000  1
  C  C107  1  0.98240000  0.69840000  0.27920000  1
  C  C108  1  0.29090000  0.69270000  0.36950000  1
  C  C109  1  0.85133000  0.69165000  0.19150000  1
  C  C110  1  0.77222000  0.66268000  0.08000000  1
  C  C111  1  0.11450000  0.64990000  0.40830000  1
  C  C112  1  0.41881000  0.63989000  0.04420000  1
  C  C113  1  0.55901000  0.63751000  0.56812000  1
  C  C114  1  0.27935000  0.62795000  0.42380000  1
  C  C115  1  0.79330000  0.62630000  0.22200000  1
  C  C116  1  0.19010000  0.60990000  0.44330000  1
  C  C117  1  0.71416000  0.60186000  0.11172000  1
  C  C118  1  0.72469000  0.58349000  0.18210000  1
  C  C119  1  0.36011000  0.58119000  0.45580000  1
  C  C120  1  0.63751000  0.55901000  0.06812000  1
  C  C121  1  0.01710000  0.55830000  0.23420000  1
  C  C122  1  0.01970000  0.54270000  0.75830000  1
  C  C123  1  0.98030000  0.45730000  0.24170000  1
  C  C124  1  0.98290000  0.44170000  0.76580000  1
  C  C125  1  0.36249000  0.44099000  0.93188000  1
  C  C126  1  0.63989000  0.41881000  0.54420000  1
  C  C127  1  0.27531000  0.41651000  0.81790000  1
  C  C128  1  0.28584000  0.39814000  0.88828000  1
  C  C129  1  0.80990000  0.39010000  0.55670000  1
  C  C130  1  0.20670000  0.37370000  0.77800000  1
  C  C131  1  0.72065000  0.37205000  0.57620000  1
  C  C132  1  0.44099000  0.36249000  0.43188000  1
  C  C133  1  0.58119000  0.36011000  0.95580000  1
  C  C134  1  0.88550000  0.35010000  0.59170000  1
  C  C135  1  0.22778000  0.33732000  0.92000000  1
  C  C136  1  0.14867000  0.30835000  0.80850000  1
  C  C137  1  0.70910000  0.30730000  0.63050000  1
  C  C138  1  0.01760000  0.30160000  0.72080000  1
  C  C139  1  0.15908000  0.29320000  0.87870000  1
  C  C140  1  0.87290000  0.29230000  0.64490000  1
  C  C141  1  0.69270000  0.29090000  0.86950000  1
  C  C142  1  0.39814000  0.28584000  0.38828000  1
  C  C143  1  0.62795000  0.27935000  0.92380000  1
  C  C144  1  0.41651000  0.27531000  0.31790000  1
  C  C145  1  0.78180000  0.26720000  0.66650000  1
  C  C146  1  0.07840000  0.25900000  0.76700000  1
  C  C147  1  0.95020000  0.25040000  0.68400000  1
  C  C148  1  0.33732000  0.22778000  0.42000000  1
  C  C149  1  0.73280000  0.21820000  0.83350000  1
  C  C150  1  0.37370000  0.20670000  0.27800000  1
  C  C151  1  0.60990000  0.19010000  0.94330000  1
  C  C152  1  0.07050000  0.16490000  0.77490000  1
  C  C153  1  0.29320000  0.15908000  0.37870000  1
  C  C154  1  0.94770000  0.15630000  0.69170000  1
  C  C155  1  0.30835000  0.14867000  0.30850000  1
  C  C156  1  0.70770000  0.12710000  0.85510000  1
  C  C157  1  0.64990000  0.11450000  0.90830000  1
  C  C158  1  0.00590000  0.11250000  0.73870000  1
  C  C159  1  0.25900000  0.07840000  0.26700000  1
  C  C160  1  0.16490000  0.07050000  0.27490000  1
  C  C161  1  0.84370000  0.05230000  0.80830000  1
  C  C162  1  0.74960000  0.04980000  0.81600000  1
  C  C163  1  0.97750000  0.04390000  0.31420000  1
  C  C164  1  0.95610000  0.02250000  0.18580000  1
  C  C165  1  0.54270000  0.01970000  0.25830000  1
  C  C166  1  0.30160000  0.01760000  0.22080000  1
  C  C167  1  0.55830000  0.01710000  0.73420000  1
  C  C168  1  0.99050000  0.00950000  0.75000000  1
  C  C169  1  0.11250000  0.00590000  0.23870000  1
  O  O170  1  0.60674000  0.97798000  0.78746000  1
  O  O171  1  0.45576000  0.64956000  0.98582000  1
  O  O172  1  0.58346000  0.62828000  0.50593000  1
  O  O173  1  0.97798000  0.60674000  0.28746000  1
  O  O174  1  0.50102000  0.58728000  0.59885000  1
  O  O175  1  0.43253000  0.58481000  0.42064000  1
  O  O176  1  0.62828000  0.58346000  0.00593000  1
  O  O177  1  0.41519000  0.56747000  0.07936000  1
  O  O178  1  0.35044000  0.54424000  0.51418000  1
  O  O179  1  0.58728000  0.50102000  0.09885000  1
  O  O180  1  0.41272000  0.49898000  0.90115000  1
  O  O181  1  0.64956000  0.45576000  0.48582000  1
  O  O182  1  0.58481000  0.43253000  0.92064000  1
  O  O183  1  0.37172000  0.41654000  0.99407000  1
  O  O184  1  0.56747000  0.41519000  0.57936000  1
  O  O185  1  0.49898000  0.41272000  0.40115000  1
  O  O186  1  0.02202000  0.39326000  0.71254000  1
  O  O187  1  0.41654000  0.37172000  0.49407000  1
  O  O188  1  0.54424000  0.35044000  0.01418000  1
  O  O189  1  0.39326000  0.02202000  0.21254000  1
