# generated using pymatgen
data_GdH8C18N3O8
_symmetry_space_group_name_H-M   'P 1'
_cell_length_a   10.18407310
_cell_length_b   10.18407310
_cell_length_c   21.23202648
_cell_angle_alpha   98.87042981
_cell_angle_beta   98.87042981
_cell_angle_gamma   110.91836770
_symmetry_Int_Tables_number   1
_chemical_formula_structural   GdH8C18N3O8
_chemical_formula_sum   'Gd4 H32 C72 N12 O32'
_cell_volume   1979.41717472
_cell_formula_units_Z   4
loop_
 _symmetry_equiv_pos_site_id
 _symmetry_equiv_pos_as_xyz
  1  'x, y, z'
loop_
 _atom_site_type_symbol
 _atom_site_label
 _atom_site_symmetry_multiplicity
 _atom_site_fract_x
 _atom_site_fract_y
 _atom_site_fract_z
 _atom_site_occupancy
  C  C0  1  0.48298000  0.83338000  0.28616000  1
  C  C1  1  0.87620000  0.44620000  0.28480000  1
  C  C2  1  0.23869000  0.63489000  0.82798000  1
  C  C3  1  0.16911000  0.51971000  0.64302000  1
  C  C4  1  0.31208000  0.06088000  0.30936000  1
  C  C5  1  0.86690000  0.42070000  0.21740000  1
  C  C6  1  0.85220000  0.03120000  0.79780000  1
  C  C7  1  0.71576000  0.26896000  0.89732000  1
  C  C8  1  0.67970000  0.25930000  0.82460000  1
  C  C9  1  0.24404000  0.64064000  0.76348000  1
  C  C10  1  0.11478000  0.25498000  0.23216000  1
  C  C11  1  0.17257000  0.29357000  0.29994000  1
  C  C12  1  0.03896000  0.83956000  0.70612000  1
  C  C13  1  0.62577000  0.24017000  0.69054000  1
  C  C14  1  0.49268000  0.84308000  0.15716000  1
  C  C15  1  0.32403000  0.76943000  0.88086000  1
  C  C16  1  0.01105000  0.54905000  0.33270000  1
  C  C17  1  0.10698000  0.91018000  0.77156000  1
  C  C18  1  0.61138000  0.91458000  0.27156000  1
  C  C19  1  0.53365000  0.57165000  0.83270000  1
  C  C20  1  0.86143000  0.80683000  0.38086000  1
  C  C21  1  0.06408000  0.91448000  0.65716000  1
  C  C22  1  0.20037000  0.31477000  0.19054000  1
  C  C23  1  0.61656000  0.91716000  0.20612000  1
  C  C24  1  0.75637000  0.37737000  0.79994000  1
  C  C25  1  0.72718000  0.36738000  0.73216000  1
  C  C26  1  0.87284000  0.76944000  0.26348000  1
  C  C27  1  0.31530000  0.39490000  0.32460000  1
  C  C28  1  0.37836000  0.43156000  0.39732000  1
  C  C29  1  0.51660000  0.19560000  0.29780000  1
  C  C30  1  0.54670000  0.60050000  0.71740000  1
  C  C31  1  0.99848000  0.24728000  0.80936000  1
  C  C32  1  0.87331000  0.72391000  0.14302000  1
  C  C33  1  0.94309000  0.83929000  0.32798000  1
  C  C34  1  0.58860000  0.65860000  0.78480000  1
  C  C35  1  0.20278000  0.05318000  0.78616000  1
  C  C36  1  0.94682000  0.79722000  0.21384000  1
  C  C37  1  0.34140000  0.41140000  0.21520000  1
  C  C38  1  0.16071000  0.05691000  0.67202000  1
  C  C39  1  0.27609000  0.12669000  0.85698000  1
  C  C40  1  0.75272000  0.00152000  0.19064000  1
  C  C41  1  0.39950000  0.45330000  0.28260000  1
  C  C42  1  0.80440000  0.48340000  0.70220000  1
  C  C43  1  0.56844000  0.62164000  0.60268000  1
  C  C44  1  0.60510000  0.68470000  0.67540000  1
  C  C45  1  0.23056000  0.12716000  0.73652000  1
  C  C46  1  0.63262000  0.27282000  0.26784000  1
  C  C47  1  0.62263000  0.24363000  0.20006000  1
  C  C48  1  0.08284000  0.38344000  0.79388000  1
  C  C49  1  0.68523000  0.79963000  0.80946000  1
  C  C50  1  0.08552000  0.93592000  0.34284000  1
  C  C51  1  0.19317000  0.13857000  0.61914000  1
  C  C52  1  0.42835000  0.46635000  0.16730000  1
  C  C53  1  0.08542000  0.38862000  0.72844000  1
  C  C54  1  0.08982000  0.89302000  0.22844000  1
  C  C55  1  0.45095000  0.98895000  0.66730000  1
  C  C56  1  0.23057000  0.67597000  0.11914000  1
  C  C57  1  0.15692000  0.50732000  0.84284000  1
  C  C58  1  0.75983000  0.37423000  0.30946000  1
  C  C59  1  0.16044000  0.96104000  0.29388000  1
  C  C60  1  0.70643000  0.82743000  0.70006000  1
  C  C61  1  0.74502000  0.88522000  0.76784000  1
  C  C62  1  0.35936000  0.75596000  0.23652000  1
  C  C63  1  0.74070000  0.32030000  0.17540000  1
  C  C64  1  0.73104000  0.28424000  0.10268000  1
  C  C65  1  0.96880000  0.14780000  0.20220000  1
  C  C66  1  0.57930000  0.13310000  0.78260000  1
  C  C67  1  0.93912000  0.68792000  0.69064000  1
  C  C68  1  0.48029000  0.83089000  0.35698000  1
  C  C69  1  0.36511000  0.76131000  0.17202000  1
  C  C70  1  0.55380000  0.12380000  0.71520000  1
  C  C71  1  0.16662000  0.51702000  0.71384000  1
  Gd  Gd72  1  0.24586000  0.32026000  0.52890000  1
  Gd  Gd73  1  0.95864000  0.53304000  0.02890000  1
  Gd  Gd74  1  0.46696000  0.04136000  0.97110000  1
  Gd  Gd75  1  0.67974000  0.75414000  0.47110000  1
  H  H76  1  0.61010000  0.56210000  0.16820000  1
  H  H77  1  0.11590000  0.25190000  0.32880000  1
  H  H78  1  0.33600000  0.14400000  0.38400000  1
  H  H79  1  0.08750000  0.86050000  0.80560000  1
  H  H80  1  0.60580000  0.23320000  0.64460000  1
  H  H81  1  0.94640000  0.47160000  0.20040000  1
  H  H82  1  0.77500000  0.70320000  0.25320000  1
  H  H83  1  0.49510000  0.84850000  0.11300000  1
  H  H84  1  0.01450000  0.86790000  0.61300000  1
  H  H85  1  0.30000000  0.72820000  0.75320000  1
  H  H86  1  0.47880000  0.50400000  0.70040000  1
  H  H87  1  0.16140000  0.28880000  0.14460000  1
  H  H88  1  0.69510000  0.96810000  0.30560000  1
  H  H89  1  0.99000000  0.29800000  0.88400000  1
  H  H90  1  0.82690000  0.46290000  0.82880000  1
  H  H91  1  0.35610000  0.80810000  0.66820000  1
  H  H92  1  0.19190000  0.64390000  0.33180000  1
  H  H93  1  0.53710000  0.17310000  0.17120000  1
  H  H94  1  0.70200000  0.01000000  0.11600000  1
  H  H95  1  0.03190000  0.30490000  0.69440000  1
  H  H96  1  0.71120000  0.83860000  0.85540000  1
  H  H97  1  0.49600000  0.52120000  0.29960000  1
  H  H98  1  0.27180000  0.70000000  0.24680000  1
  H  H99  1  0.13210000  0.98550000  0.38700000  1
  H  H100  1  0.15150000  0.50490000  0.88700000  1
  H  H101  1  0.29680000  0.22500000  0.74680000  1
  H  H102  1  0.52840000  0.05360000  0.79960000  1
  H  H103  1  0.76680000  0.39420000  0.35540000  1
  H  H104  1  0.13950000  0.91250000  0.19440000  1
  H  H105  1  0.85600000  0.66400000  0.61600000  1
  H  H106  1  0.74810000  0.88410000  0.67120000  1
  H  H107  1  0.43790000  0.38990000  0.83180000  1
  N  N108  1  0.90950000  0.07890000  0.86020000  1
  N  N109  1  0.39739000  0.11119000  0.36878000  1
  N  N110  1  0.38209000  0.10749000  0.26278000  1
  N  N111  1  0.90529000  0.13069000  0.76278000  1
  N  N112  1  0.00759000  0.22139000  0.86878000  1
  N  N113  1  0.53130000  0.20070000  0.36020000  1
  N  N114  1  0.79930000  0.46870000  0.63980000  1
  N  N115  1  0.77861000  0.99241000  0.13122000  1
  N  N116  1  0.86931000  0.09471000  0.23722000  1
  N  N117  1  0.89251000  0.61791000  0.73722000  1
  N  N118  1  0.88881000  0.60261000  0.63122000  1
  N  N119  1  0.92110000  0.09050000  0.13980000  1
  O  O120  1  0.75416000  0.69096000  0.37032000  1
  O  O121  1  0.60115000  0.87415000  0.39670000  1
  O  O122  1  0.44250000  0.44130000  0.80440000  1
  O  O123  1  0.82597000  0.37177000  0.08154000  1
  O  O124  1  0.28821000  0.78261000  0.93542000  1
  O  O125  1  0.02248000  0.57248000  0.39116000  1
  O  O126  1  0.21738000  0.63818000  0.62656000  1
  O  O127  1  0.31331000  0.35151000  0.43062000  1
  O  O128  1  0.82911000  0.36731000  0.93062000  1
  O  O129  1  0.73838000  0.65918000  0.12656000  1
  O  O130  1  0.56868000  0.61868000  0.89116000  1
  O  O131  1  0.90281000  0.89721000  0.43542000  1
  O  O132  1  0.45977000  0.50557000  0.58154000  1
  O  O133  1  0.11310000  0.61190000  0.30440000  1
  O  O134  1  0.27255000  0.04555000  0.89670000  1
  O  O135  1  0.42936000  0.86616000  0.87032000  1
  O  O136  1  0.13384000  0.57064000  0.12968000  1
  O  O137  1  0.95445000  0.72745000  0.10330000  1
  O  O138  1  0.38810000  0.88690000  0.69560000  1
  O  O139  1  0.49443000  0.54023000  0.41846000  1
  O  O140  1  0.10279000  0.09719000  0.56458000  1
  O  O141  1  0.38132000  0.43132000  0.10884000  1
  O  O142  1  0.34082000  0.26162000  0.87344000  1
  O  O143  1  0.63269000  0.17089000  0.06938000  1
  O  O144  1  0.64849000  0.68669000  0.56938000  1
  O  O145  1  0.36182000  0.78262000  0.37344000  1
  O  O146  1  0.42752000  0.97752000  0.60884000  1
  O  O147  1  0.21739000  0.71179000  0.06458000  1
  O  O148  1  0.62823000  0.17403000  0.91846000  1
  O  O149  1  0.55870000  0.55750000  0.19560000  1
  O  O150  1  0.12585000  0.39885000  0.60330000  1
  O  O151  1  0.30904000  0.24584000  0.62968000  1
