# generated using pymatgen
data_FeH4C8O5
_symmetry_space_group_name_H-M   'P 1'
_cell_length_a   6.88390000
_cell_length_b   9.28760000
_cell_length_c   10.91958099
_cell_angle_alpha   115.16792746
_cell_angle_beta   105.57814207
_cell_angle_gamma   90.00000000
_symmetry_Int_Tables_number   1
_chemical_formula_structural   FeH4C8O5
_chemical_formula_sum   'Fe2 H8 C16 O10'
_cell_volume   603.40782694
_cell_formula_units_Z   2
loop_
 _symmetry_equiv_pos_site_id
 _symmetry_equiv_pos_as_xyz
  1  'x, y, z'
loop_
 _atom_site_type_symbol
 _atom_site_label
 _atom_site_symmetry_multiplicity
 _atom_site_fract_x
 _atom_site_fract_y
 _atom_site_fract_z
 _atom_site_occupancy
  C  C0  1  0.67000000  0.02580000  0.78220000  1
  C  C1  1  0.17000000  0.75640000  0.78220000  1
  C  C2  1  0.58600000  0.00300000  0.63300000  1
  C  C3  1  0.08600000  0.63000000  0.63300000  1
  C  C4  1  0.38260000  0.00560000  0.57900000  1
  C  C5  1  0.88260000  0.57340000  0.57900000  1
  C  C6  1  0.71240000  0.97940000  0.55020000  1
  C  C7  1  0.21240000  0.57080000  0.55020000  1
  C  C8  1  0.30550000  0.98470000  0.44220000  1
  C  C9  1  0.80550000  0.45750000  0.44220000  1
  C  C10  1  0.63540000  0.95840000  0.41340000  1
  C  C11  1  0.13540000  0.45500000  0.41340000  1
  C  C12  1  0.43190000  0.96110000  0.35940000  1
  C  C13  1  0.93190000  0.39830000  0.35940000  1
  C  C14  1  0.34780000  0.93810000  0.21000000  1
  C  C15  1  0.84780000  0.27190000  0.21000000  1
  Fe  Fe16  1  0.00470000  0.00550000  0.99000000  1
  Fe  Fe17  1  0.50470000  0.98450000  0.99000000  1
  H  H18  1  0.29210000  0.02250000  0.63820000  1
  H  H19  1  0.79210000  0.61570000  0.63820000  1
  H  H20  1  0.85770000  0.97740000  0.58860000  1
  H  H21  1  0.35770000  0.61120000  0.58860000  1
  H  H22  1  0.16000000  0.98660000  0.40360000  1
  H  H23  1  0.66000000  0.41700000  0.40360000  1
  H  H24  1  0.72560000  0.94150000  0.35400000  1
  H  H25  1  0.22560000  0.41250000  0.35400000  1
  O  O26  1  0.25250000  0.09150000  0.98960000  1
  O  O27  1  0.75250000  0.89810000  0.98960000  1
  O  O28  1  0.55570000  0.05810000  0.86200000  1
  O  O29  1  0.05570000  0.80390000  0.86200000  1
  O  O30  1  0.85580000  0.01310000  0.82940000  1
  O  O31  1  0.35580000  0.81630000  0.82940000  1
  O  O32  1  0.16210000  0.95100000  0.16300000  1
  O  O33  1  0.66210000  0.21200000  0.16300000  1
  O  O34  1  0.46220000  0.90600000  0.13040000  1
  O  O35  1  0.96220000  0.22440000  0.13040000  1
