# generated using pymatgen
data_CoH26C28N7O4
_symmetry_space_group_name_H-M   'P 1'
_cell_length_a   12.33800000
_cell_length_b   13.54300000
_cell_length_c   38.21864595
_cell_angle_alpha   91.25353769
_cell_angle_beta   90.00000000
_cell_angle_gamma   90.00000000
_symmetry_Int_Tables_number   1
_chemical_formula_structural   CoH26C28N7O4
_chemical_formula_sum   'Co8 H208 C224 N56 O32'
_cell_volume   6384.56028596
_cell_formula_units_Z   8
loop_
 _symmetry_equiv_pos_site_id
 _symmetry_equiv_pos_as_xyz
  1  'x, y, z'
loop_
 _atom_site_type_symbol
 _atom_site_label
 _atom_site_symmetry_multiplicity
 _atom_site_fract_x
 _atom_site_fract_y
 _atom_site_fract_z
 _atom_site_occupancy
  Co  Co0  1  0.09114000  0.20647000  0.07936000  1
  Co  Co1  1  0.40886000  0.70647000  0.57936000  1
  Co  Co2  1  0.11206000  0.62750000  0.30682000  1
  Co  Co3  1  0.38794000  0.12750000  0.80682000  1
  Co  Co4  1  0.61206000  0.87250000  0.19318000  1
  Co  Co5  1  0.88794000  0.37250000  0.69318000  1
  Co  Co6  1  0.59114000  0.29353000  0.42064000  1
  Co  Co7  1  0.90886000  0.79353000  0.92064000  1
  H  H8  1  0.06290000  0.88440000  0.86630000  1
  H  H9  1  0.43710000  0.38440000  0.36630000  1
  H  H10  1  0.16420000  0.62630000  0.59910000  1
  H  H11  1  0.33580000  0.12630000  0.09910000  1
  H  H12  1  0.74890000  0.36290000  0.33060000  1
  H  H13  1  0.75110000  0.86290000  0.83060000  1
  H  H14  1  0.20450000  0.85830000  0.81730000  1
  H  H15  1  0.29550000  0.35830000  0.31730000  1
  H  H16  1  0.01270000  0.69940000  0.63760000  1
  H  H17  1  0.48730000  0.19940000  0.13760000  1
  H  H18  1  0.18950000  0.74090000  0.67350000  1
  H  H19  1  0.31050000  0.24090000  0.17350000  1
  H  H20  1  0.12950000  0.42830000  0.35860000  1
  H  H21  1  0.37050000  0.92830000  0.85860000  1
  H  H22  1  0.06140000  0.79130000  0.70650000  1
  H  H23  1  0.43860000  0.29130000  0.20650000  1
  H  H24  1  0.03740000  0.83630000  0.74470000  1
  H  H25  1  0.46260000  0.33630000  0.24470000  1
  H  H26  1  0.11910000  0.88430000  0.78730000  1
  H  H27  1  0.38090000  0.38430000  0.28730000  1
  H  H28  1  0.74290000  0.76550000  0.65600000  1
  H  H29  1  0.75710000  0.26550000  0.15600000  1
  H  H30  1  0.58220000  0.53780000  0.42550000  1
  H  H31  1  0.91780000  0.03780000  0.92550000  1
  H  H32  1  0.00940000  0.32550000  0.20400000  1
  H  H33  1  0.49060000  0.82550000  0.70400000  1
  H  H34  1  0.60550000  0.42920000  0.30600000  1
  H  H35  1  0.89450000  0.92920000  0.80600000  1
  H  H36  1  0.60350000  0.04820000  0.90380000  1
  H  H37  1  0.89650000  0.54820000  0.40380000  1
  H  H38  1  0.07010000  0.10410000  0.95420000  1
  H  H39  1  0.42990000  0.60410000  0.45420000  1
  H  H40  1  0.13270000  0.88120000  0.72150000  1
  H  H41  1  0.36730000  0.38120000  0.22150000  1
  H  H42  1  0.64790000  0.32780000  0.16130000  1
  H  H43  1  0.85210000  0.82780000  0.66130000  1
  H  H44  1  0.12950000  0.34230000  0.15300000  1
  H  H45  1  0.37050000  0.84230000  0.65300000  1
  H  H46  1  0.59370000  0.99000000  0.78890000  1
  H  H47  1  0.90630000  0.49000000  0.28890000  1
  H  H48  1  0.66170000  0.76590000  0.56470000  1
  H  H49  1  0.83830000  0.26590000  0.06470000  1
  H  H50  1  0.70160000  0.50650000  0.30040000  1
  H  H51  1  0.79840000  0.00650000  0.80040000  1
  H  H52  1  0.11370000  0.11010000  0.90190000  1
  H  H53  1  0.38630000  0.61010000  0.40190000  1
  H  H54  1  0.73840000  0.88360000  0.65800000  1
  H  H55  1  0.76160000  0.38360000  0.15800000  1
  H  H56  1  0.59930000  0.50550000  0.27470000  1
  H  H57  1  0.90070000  0.00550000  0.77470000  1
  H  H58  1  0.10680000  0.47520000  0.23530000  1
  H  H59  1  0.39320000  0.97520000  0.73530000  1
  H  H60  1  0.54740000  0.47080000  0.22670000  1
  H  H61  1  0.95260000  0.97080000  0.72670000  1
  H  H62  1  0.74020000  0.70010000  0.44860000  1
  H  H63  1  0.75980000  0.20010000  0.94860000  1
  H  H64  1  0.59590000  0.44500000  0.18880000  1
  H  H65  1  0.90410000  0.94500000  0.68880000  1
  H  H66  1  0.65200000  0.60720000  0.34750000  1
  H  H67  1  0.84800000  0.10720000  0.84750000  1
  H  H68  1  0.59720000  0.76930000  0.48360000  1
  H  H69  1  0.90280000  0.26930000  0.98360000  1
  H  H70  1  0.69780000  0.21690000  0.91260000  1
  H  H71  1  0.80220000  0.71690000  0.41260000  1
  H  H72  1  0.17570000  0.78390000  0.47840000  1
  H  H73  1  0.32430000  0.28390000  0.97840000  1
  H  H74  1  0.10350000  0.74120000  0.43190000  1
  H  H75  1  0.39650000  0.24120000  0.93190000  1
  H  H76  1  0.74500000  0.17450000  0.85680000  1
  H  H77  1  0.75500000  0.67450000  0.35680000  1
  H  H78  1  0.69260000  0.06560000  0.74130000  1
  H  H79  1  0.80740000  0.56560000  0.24130000  1
  H  H80  1  0.06110000  0.53260000  0.17640000  1
  H  H81  1  0.43890000  0.03260000  0.67640000  1
  H  H82  1  0.69540000  0.83450000  0.46950000  1
  H  H83  1  0.80460000  0.33450000  0.96950000  1
  H  H84  1  0.73680000  0.93090000  0.55450000  1
  H  H85  1  0.76320000  0.43090000  0.05450000  1
  H  H86  1  0.67650000  0.70350000  0.32530000  1
  H  H87  1  0.82350000  0.20350000  0.82530000  1
  H  H88  1  0.50300000  0.69630000  0.31750000  1
  H  H89  1  0.99700000  0.19630000  0.81750000  1
  H  H90  1  0.08160000  0.45410000  0.07020000  1
  H  H91  1  0.41840000  0.95410000  0.57020000  1
  H  H92  1  0.58150000  0.88540000  0.47860000  1
  H  H93  1  0.91850000  0.38540000  0.97860000  1
  H  H94  1  0.64740000  0.03740000  0.61940000  1
  H  H95  1  0.85260000  0.53740000  0.11940000  1
  H  H96  1  0.06930000  0.39690000  0.96810000  1
  H  H97  1  0.43070000  0.89690000  0.46810000  1
  H  H98  1  0.09800000  0.26840000  0.82390000  1
  H  H99  1  0.40200000  0.76840000  0.32390000  1
  H  H100  1  0.64110000  0.10200000  0.65490000  1
  H  H101  1  0.85890000  0.60200000  0.15490000  1
  H  H102  1  0.16320000  0.39260000  0.93920000  1
  H  H103  1  0.33680000  0.89260000  0.43920000  1
  H  H104  1  0.55080000  0.63900000  0.18460000  1
  H  H105  1  0.94920000  0.13900000  0.68460000  1
  H  H106  1  0.20910000  0.35890000  0.87770000  1
  H  H107  1  0.29090000  0.85890000  0.37770000  1
  H  H108  1  0.19330000  0.25320000  0.76620000  1
  H  H109  1  0.30670000  0.75320000  0.26620000  1
  H  H110  1  0.51470000  0.74700000  0.25440000  1
  H  H111  1  0.98530000  0.24700000  0.75440000  1
  H  H112  1  0.01470000  0.75300000  0.24560000  1
  H  H113  1  0.48530000  0.25300000  0.74560000  1
  H  H114  1  0.69330000  0.24680000  0.73380000  1
  H  H115  1  0.80670000  0.74680000  0.23380000  1
  H  H116  1  0.70910000  0.14110000  0.62230000  1
  H  H117  1  0.79090000  0.64110000  0.12230000  1
  H  H118  1  0.05080000  0.86100000  0.31540000  1
  H  H119  1  0.44920000  0.36100000  0.81540000  1
  H  H120  1  0.66320000  0.10740000  0.56080000  1
  H  H121  1  0.83680000  0.60740000  0.06080000  1
  H  H122  1  0.14110000  0.39800000  0.84510000  1
  H  H123  1  0.35890000  0.89800000  0.34510000  1
  H  H124  1  0.59800000  0.23160000  0.67610000  1
  H  H125  1  0.90200000  0.73160000  0.17610000  1
  H  H126  1  0.56930000  0.10310000  0.53190000  1
  H  H127  1  0.93070000  0.60310000  0.03190000  1
  H  H128  1  0.14740000  0.46260000  0.88060000  1
  H  H129  1  0.35260000  0.96260000  0.38060000  1
  H  H130  1  0.08150000  0.61460000  0.02140000  1
  H  H131  1  0.41850000  0.11460000  0.52140000  1
  H  H132  1  0.58160000  0.04590000  0.42980000  1
  H  H133  1  0.91840000  0.54590000  0.92980000  1
  H  H134  1  0.00300000  0.80370000  0.18250000  1
  H  H135  1  0.49700000  0.30370000  0.68250000  1
  H  H136  1  0.17650000  0.79650000  0.17470000  1
  H  H137  1  0.32350000  0.29650000  0.67470000  1
  H  H138  1  0.23680000  0.56910000  0.94550000  1
  H  H139  1  0.26320000  0.06910000  0.44550000  1
  H  H140  1  0.19540000  0.66550000  0.03050000  1
  H  H141  1  0.30460000  0.16550000  0.53050000  1
  H  H142  1  0.56110000  0.96740000  0.32360000  1
  H  H143  1  0.93890000  0.46740000  0.82360000  1
  H  H144  1  0.19260000  0.43440000  0.75870000  1
  H  H145  1  0.30740000  0.93440000  0.25870000  1
  H  H146  1  0.24500000  0.32550000  0.64320000  1
  H  H147  1  0.25500000  0.82550000  0.14320000  1
  H  H148  1  0.60350000  0.75880000  0.06810000  1
  H  H149  1  0.89650000  0.25880000  0.56810000  1
  H  H150  1  0.67570000  0.71610000  0.02160000  1
  H  H151  1  0.82430000  0.21610000  0.52160000  1
  H  H152  1  0.19780000  0.28310000  0.58740000  1
  H  H153  1  0.30220000  0.78310000  0.08740000  1
  H  H154  1  0.09720000  0.73070000  0.01640000  1
  H  H155  1  0.40280000  0.23070000  0.51640000  1
  H  H156  1  0.15200000  0.89280000  0.15250000  1
  H  H157  1  0.34800000  0.39280000  0.65250000  1
  H  H158  1  0.09590000  0.05500000  0.31120000  1
  H  H159  1  0.40410000  0.55500000  0.81120000  1
  H  H160  1  0.24020000  0.79990000  0.05140000  1
  H  H161  1  0.25980000  0.29990000  0.55140000  1
  H  H162  1  0.04740000  0.02920000  0.27330000  1
  H  H163  1  0.45260000  0.52920000  0.77330000  1
  H  H164  1  0.60680000  0.02480000  0.26470000  1
  H  H165  1  0.89320000  0.52480000  0.76470000  1
  H  H166  1  0.09930000  0.99450000  0.22530000  1
  H  H167  1  0.40070000  0.49450000  0.72530000  1
  H  H168  1  0.23840000  0.61640000  0.84200000  1
  H  H169  1  0.26160000  0.11640000  0.34200000  1
  H  H170  1  0.61370000  0.38990000  0.59810000  1
  H  H171  1  0.88630000  0.88990000  0.09810000  1
  H  H172  1  0.20160000  0.99350000  0.19960000  1
  H  H173  1  0.29840000  0.49350000  0.69960000  1
  H  H174  1  0.16170000  0.73410000  0.93530000  1
  H  H175  1  0.33830000  0.23410000  0.43530000  1
  H  H176  1  0.09370000  0.51000000  0.71110000  1
  H  H177  1  0.40630000  0.01000000  0.21110000  1
  H  H178  1  0.62950000  0.15770000  0.34700000  1
  H  H179  1  0.87050000  0.65770000  0.84700000  1
  H  H180  1  0.14790000  0.17220000  0.33870000  1
  H  H181  1  0.35210000  0.67220000  0.83870000  1
  H  H182  1  0.63270000  0.61880000  0.77850000  1
  H  H183  1  0.86730000  0.11880000  0.27850000  1
  H  H184  1  0.57010000  0.39590000  0.54580000  1
  H  H185  1  0.92990000  0.89590000  0.04580000  1
  H  H186  1  0.10350000  0.45180000  0.59620000  1
  H  H187  1  0.39650000  0.95180000  0.09620000  1
  H  H188  1  0.10550000  0.07080000  0.19400000  1
  H  H189  1  0.39450000  0.57080000  0.69400000  1
  H  H190  1  0.50940000  0.17450000  0.29600000  1
  H  H191  1  0.99060000  0.67450000  0.79600000  1
  H  H192  1  0.08220000  0.96220000  0.07450000  1
  H  H193  1  0.41780000  0.46220000  0.57450000  1
  H  H194  1  0.24290000  0.73450000  0.84400000  1
  H  H195  1  0.25710000  0.23450000  0.34400000  1
  H  H196  1  0.61910000  0.61570000  0.71270000  1
  H  H197  1  0.88090000  0.11570000  0.21270000  1
  H  H198  1  0.53740000  0.66370000  0.75530000  1
  H  H199  1  0.96260000  0.16370000  0.25530000  1
  H  H200  1  0.56140000  0.70870000  0.79350000  1
  H  H201  1  0.93860000  0.20870000  0.29350000  1
  H  H202  1  0.62950000  0.07170000  0.14140000  1
  H  H203  1  0.87050000  0.57170000  0.64140000  1
  H  H204  1  0.68950000  0.75910000  0.82650000  1
  H  H205  1  0.81050000  0.25910000  0.32650000  1
  H  H206  1  0.51270000  0.80060000  0.86240000  1
  H  H207  1  0.98730000  0.30060000  0.36240000  1
  H  H208  1  0.70450000  0.64170000  0.68270000  1
  H  H209  1  0.79550000  0.14170000  0.18270000  1
  H  H210  1  0.24890000  0.13710000  0.16940000  1
  H  H211  1  0.25110000  0.63710000  0.66940000  1
  H  H212  1  0.66420000  0.87370000  0.90090000  1
  H  H213  1  0.83580000  0.37370000  0.40090000  1
  H  H214  1  0.56290000  0.61560000  0.63370000  1
  H  H215  1  0.93710000  0.11560000  0.13370000  1
  C  C216  1  0.17260000  0.74880000  0.74290000  1
  C  C217  1  0.32740000  0.24880000  0.24290000  1
  C  C218  1  0.51190000  0.85466000  0.84696000  1
  C  C219  1  0.98810000  0.35466000  0.34696000  1
  C  C220  1  0.69380000  0.82698000  0.81748000  1
  C  C221  1  0.80620000  0.32698000  0.31748000  1
  C  C222  1  0.70890000  0.92908000  0.90628000  1
  C  C223  1  0.79110000  0.42908000  0.40628000  1
  C  C224  1  0.52930000  0.67107000  0.64487000  1
  C  C225  1  0.97070000  0.17107000  0.14487000  1
  C  C226  1  0.14700000  0.83046000  0.80196000  1
  C  C227  1  0.35300000  0.33046000  0.30196000  1
  C  C228  1  0.69490000  0.75010000  0.72150000  1
  C  C229  1  0.80510000  0.25010000  0.22150000  1
  C  C230  1  0.72280000  0.82246000  0.77886000  1
  C  C231  1  0.77720000  0.32246000  0.27886000  1
  C  C232  1  0.06620000  0.42483000  0.34453000  1
  C  C233  1  0.43380000  0.92483000  0.84453000  1
  C  C234  1  0.52650000  0.60975000  0.51985000  1
  C  C235  1  0.97350000  0.10975000  0.01985000  1
  C  C236  1  0.09430000  0.82067000  0.72757000  1
  C  C237  1  0.40570000  0.32067000  0.22757000  1
  C  C238  1  0.65380000  0.51827000  0.41947000  1
  C  C239  1  0.84620000  0.01827000  0.91947000  1
  C  C240  1  0.00900000  0.28506000  0.18336000  1
  C  C241  1  0.49100000  0.78506000  0.68336000  1
  C  C242  1  0.73990000  0.32170000  0.20670000  1
  C  C243  1  0.76010000  0.82170000  0.70670000  1
  C  C244  1  0.67510000  0.02489000  0.90769000  1
  C  C245  1  0.82490000  0.52489000  0.40769000  1
  C  C246  1  0.70470000  0.39088000  0.26478000  1
  C  C247  1  0.79530000  0.89088000  0.76478000  1
  C  C248  1  0.07480000  0.29352000  0.15552000  1
  C  C249  1  0.42520000  0.79352000  0.65552000  1
  C  C250  1  0.07690000  0.15219000  0.00499000  1
  C  C251  1  0.42310000  0.65219000  0.50499000  1
  C  C252  1  0.55440000  0.95844000  0.80684000  1
  C  C253  1  0.94560000  0.45844000  0.30684000  1
  C  C254  1  0.72530000  0.32492000  0.16692000  1
  C  C255  1  0.77470000  0.82492000  0.66692000  1
  C  C256  1  0.68940000  0.39178000  0.22868000  1
  C  C257  1  0.81060000  0.89178000  0.72868000  1
  C  C258  1  0.11120000  0.14232000  0.97052000  1
  C  C259  1  0.38880000  0.64232000  0.47052000  1
  C  C260  1  0.64780000  0.46444000  0.28854000  1
  C  C261  1  0.85220000  0.96444000  0.78854000  1
  C  C262  1  0.20600000  0.18847000  0.96007000  1
  C  C263  1  0.29400000  0.68847000  0.46007000  1
  C  C264  1  0.18570000  0.13092000  0.89722000  1
  C  C265  1  0.31430000  0.63092000  0.39722000  1
  C  C266  1  0.22360000  0.25272000  0.01872000  1
  C  C267  1  0.27640000  0.75272000  0.51872000  1
  C  C268  1  0.17180000  0.06917000  0.83327000  1
  C  C269  1  0.32820000  0.56923333  0.33333333  1
  C  C270  1  0.24930000  0.17619000  0.92369000  1
  C  C271  1  0.25070000  0.67619000  0.42369000  1
  C  C272  1  0.23000000  0.11751000  0.86431000  1
  C  C273  1  0.27000000  0.61751000  0.36431000  1
  C  C274  1  0.61510000  0.46685000  0.21285000  1
  C  C275  1  0.88490000  0.96685000  0.71285000  1
  C  C276  1  0.62100000  0.82543000  0.56453000  1
  C  C277  1  0.87900000  0.32543000  0.06453000  1
  C  C278  1  0.23830000  0.74790000  0.48490000  1
  C  C279  1  0.26170000  0.24790000  0.98490000  1
  C  C280  1  0.22620000  0.81333000  0.54863000  1
  C  C281  1  0.27380000  0.31333000  0.04863000  1
  C  C282  1  0.73600000  0.68861000  0.42301000  1
  C  C283  1  0.76400000  0.18861000  0.92301000  1
  C  C284  1  0.14770000  0.70885000  0.41485000  1
  C  C285  1  0.35230000  0.20885000  0.91485000  1
  C  C286  1  0.08230000  0.53970000  0.23000000  1
  C  C287  1  0.41770000  0.03970000  0.73000000  1
  C  C288  1  0.10980000  0.69415000  0.38125000  1
  C  C289  1  0.39020000  0.19415000  0.88125000  1
  C  C290  1  0.67970000  0.67493000  0.34863000  1
  C  C291  1  0.82030000  0.17493000  0.84863000  1
  C  C292  1  0.63910000  0.74302000  0.40932000  1
  C  C293  1  0.86090000  0.24302000  0.90932000  1
  C  C294  1  0.61660000  0.82557000  0.46917000  1
  C  C295  1  0.66310000  0.91529000  0.55889000  1
  C  C296  1  0.83690000  0.41529000  0.05889000  1
  C  C297  1  0.88340000  0.32557000  0.96917000  1
  C  C298  1  0.01100000  0.42691000  0.06751000  1
  C  C299  1  0.48900000  0.92691000  0.56751000  1
  C  C300  1  0.61150000  0.73587000  0.37377000  1
  C  C301  1  0.88850000  0.23587000  0.87377000  1
  C  C302  1  0.00230000  0.73021000  0.36681000  1
  C  C303  1  0.49770000  0.23021000  0.86681000  1
  C  C304  1  0.05760000  0.57035000  0.19765000  1
  C  C305  1  0.44240000  0.07035000  0.69765000  1
  C  C306  1  0.74470000  0.10267000  0.72887000  1
  C  C307  1  0.75530000  0.60267000  0.22887000  1
  C  C308  1  0.57880000  0.80620000  0.43180000  1
  C  C309  1  0.92120000  0.30620000  0.93180000  1
  C  C310  1  0.51920000  0.78404000  0.36134000  1
  C  C311  1  0.98080000  0.28404000  0.86134000  1
  C  C312  1  0.01350000  0.35352000  0.91922000  1
  C  C313  1  0.48650000  0.85352000  0.41922000  1
  C  C314  1  0.01790000  0.26448000  0.82448000  1
  C  C315  1  0.48210000  0.76448000  0.32448000  1
  C  C316  1  0.61590000  0.64361000  0.19781000  1
  C  C317  1  0.88410000  0.14361000  0.69781000  1
  C  C318  1  0.03280000  0.69007000  0.23577000  1
  C  C319  1  0.46720000  0.19007000  0.73577000  1
  C  C320  1  0.04440000  0.34374000  0.88414000  1
  C  C321  1  0.45560000  0.84374000  0.38414000  1
  C  C322  1  0.08710000  0.41267000  0.94357000  1
  C  C323  1  0.41290000  0.91267000  0.44357000  1
  C  C324  1  0.64430000  0.10458000  0.62928000  1
  C  C325  1  0.85570000  0.60458000  0.12928000  1
  C  C326  1  0.74530000  0.20185000  0.72445000  1
  C  C327  1  0.75470000  0.70185000  0.22445000  1
  C  C328  1  0.24530000  0.29815000  0.77555000  1
  C  C329  1  0.25470000  0.79815000  0.27555000  1
  C  C330  1  0.14430000  0.39542000  0.87072000  1
  C  C331  1  0.35570000  0.89542000  0.37072000  1
  C  C332  1  0.58710000  0.08733000  0.55643000  1
  C  C333  1  0.91290000  0.58733000  0.05643000  1
  C  C334  1  0.54440000  0.15626000  0.61586000  1
  C  C335  1  0.95560000  0.65626000  0.11586000  1
  C  C336  1  0.53280000  0.80993000  0.26423000  1
  C  C337  1  0.96720000  0.30993000  0.76423000  1
  C  C338  1  0.11590000  0.85639000  0.30219000  1
  C  C339  1  0.38410000  0.35639000  0.80219000  1
  C  C340  1  0.51790000  0.23552000  0.67552000  1
  C  C341  1  0.98210000  0.73552000  0.17552000  1
  C  C342  1  0.51350000  0.14648000  0.58078000  1
  C  C343  1  0.98650000  0.64648000  0.08078000  1
  C  C344  1  0.01920000  0.71596000  0.13866000  1
  C  C345  1  0.48080000  0.21596000  0.63866000  1
  C  C346  1  0.07880000  0.69380000  0.06820000  1
  C  C347  1  0.42120000  0.19380000  0.56820000  1
  C  C348  1  0.24470000  0.39733000  0.77113000  1
  C  C349  1  0.25530000  0.89733000  0.27113000  1
  C  C350  1  0.55760000  0.92965000  0.30235000  1
  C  C351  1  0.94240000  0.42965000  0.80235000  1
  C  C352  1  0.50230000  0.76979000  0.13319000  1
  C  C353  1  0.99770000  0.26979000  0.63319000  1
  C  C354  1  0.11150000  0.76413000  0.12623000  1
  C  C355  1  0.38850000  0.26413000  0.62623000  1
  C  C356  1  0.51100000  0.07309000  0.43249000  1
  C  C357  1  0.98900000  0.57309000  0.93249000  1
  C  C358  1  0.11660000  0.67443000  0.03083000  1
  C  C359  1  0.16310000  0.58471000  0.94111000  1
  C  C360  1  0.33690000  0.08471000  0.44111000  1
  C  C361  1  0.38340000  0.17443000  0.53083000  1
  C  C362  1  0.13910000  0.75698000  0.09068000  1
  C  C363  1  0.36090000  0.25698000  0.59068000  1
  C  C364  1  0.17970000  0.82507000  0.15137000  1
  C  C365  1  0.32030000  0.32507000  0.65137000  1
  C  C366  1  0.60980000  0.80585000  0.11875000  1
  C  C367  1  0.89020000  0.30585000  0.61875000  1
  C  C368  1  0.58230000  0.96030000  0.27000000  1
  C  C369  1  0.91770000  0.46030000  0.77000000  1
  C  C370  1  0.64770000  0.79115000  0.08515000  1
  C  C371  1  0.85230000  0.29115000  0.58515000  1
  C  C372  1  0.23600000  0.81139000  0.07699000  1
  C  C373  1  0.26400000  0.31139000  0.57699000  1
  C  C374  1  0.72620000  0.68667000  0.95137000  1
  C  C375  1  0.77380000  0.18667000  0.45137000  1
  C  C376  1  0.73830000  0.75210000  0.01510000  1
  C  C377  1  0.76170000  0.25210000  0.51510000  1
  C  C378  1  0.12100000  0.67457000  0.93547000  1
  C  C379  1  0.37900000  0.17457000  0.43547000  1
  C  C380  1  0.11510000  0.03315000  0.28715000  1
  C  C381  1  0.38490000  0.53315000  0.78715000  1
  C  C382  1  0.73000000  0.38249000  0.63569000  1
  C  C383  1  0.77000000  0.88249000  0.13569000  1
  C  C384  1  0.74930000  0.32381000  0.57631000  1
  C  C385  1  0.75070000  0.82381000  0.07631000  1
  C  C386  1  0.67180000  0.43083000  0.66673000  1
  C  C387  1  0.82820000  0.93083000  0.16673000  1
  C  C388  1  0.72360000  0.24728000  0.48128000  1
  C  C389  1  0.77640000  0.74728000  0.98128000  1
  C  C390  1  0.68570000  0.36908000  0.60278000  1
  C  C391  1  0.81430000  0.86908000  0.10278000  1
  C  C392  1  0.70600000  0.31153000  0.53993000  1
  C  C393  1  0.79400000  0.81153000  0.03993000  1
  C  C394  1  0.14780000  0.03556000  0.21146000  1
  C  C395  1  0.35220000  0.53556000  0.71146000  1
  C  C396  1  0.61120000  0.35768000  0.52948000  1
  C  C397  1  0.88880000  0.85768000  0.02948000  1
  C  C398  1  0.18940000  0.10822000  0.27132000  1
  C  C399  1  0.31060000  0.60822000  0.77132000  1
  C  C400  1  0.22530000  0.17508000  0.33308000  1
  C  C401  1  0.27470000  0.67508000  0.83308000  1
  C  C402  1  0.05440000  0.54156000  0.69316000  1
  C  C403  1  0.44560000  0.04156000  0.19316000  1
  C  C404  1  0.57690000  0.34781000  0.49501000  1
  C  C405  1  0.92310000  0.84781000  0.99501000  1
  C  C406  1  0.57480000  0.20648000  0.34448000  1
  C  C407  1  0.92520000  0.70648000  0.84448000  1
  C  C408  1  0.20470000  0.10912000  0.23522000  1
  C  C409  1  0.29530000  0.60912000  0.73522000  1
  C  C410  1  0.17510000  0.47511000  0.59231000  1
  C  C411  1  0.32490000  0.97511000  0.09231000  1
  C  C412  1  0.23990000  0.17830000  0.29330000  1
  C  C413  1  0.26010000  0.67830000  0.79330000  1
  C  C414  1  0.50900000  0.21494000  0.31664000  1
  C  C415  1  0.99100000  0.71494000  0.81664000  1
  C  C416  1  0.15380000  0.98173000  0.08053000  1
  C  C417  1  0.34620000  0.48173000  0.58053000  1
  C  C418  1  0.59430000  0.67933000  0.77243000  1
  C  C419  1  0.90570000  0.17933000  0.27243000  1
  C  C420  1  0.02650000  0.89025000  0.98015000  1
  C  C421  1  0.47350000  0.39025000  0.48015000  1
  C  C422  1  0.56620000  0.07517000  0.15547000  1
  C  C423  1  0.93380000  0.57517000  0.65547000  1
  C  C424  1  0.22280000  0.67754000  0.72114000  1
  C  C425  1  0.27720000  0.17754000  0.22114000  1
  C  C426  1  0.19490000  0.74990000  0.77850000  1
  C  C427  1  0.30510000  0.24990000  0.27850000  1
  C  C428  1  0.64700000  0.66954000  0.69804000  1
  C  C429  1  0.85300000  0.16954000  0.19804000  1
  C  C430  1  0.02930000  0.82893000  0.85513000  1
  C  C431  1  0.47070000  0.32893000  0.35513000  1
  C  C432  1  0.20890000  0.57092000  0.59372000  1
  C  C433  1  0.29110000  0.07092000  0.09372000  1
  C  C434  1  0.19380000  0.67302000  0.68252000  1
  C  C435  1  0.30620000  0.17302000  0.18252000  1
  C  C436  1  0.01190000  0.64534000  0.65304000  1
  C  C437  1  0.48810000  0.14534000  0.15304000  1
  C  C438  1  0.67260000  0.75120000  0.75710000  1
  C  C439  1  0.82740000  0.25120000  0.25710000  1
  N  N440  1  0.68310000  0.42513000  0.41373000  1
  N  N441  1  0.81690000  0.92513000  0.91373000  1
  N  N442  1  0.55820000  0.70750000  0.67630000  1
  N  N443  1  0.94180000  0.20750000  0.17630000  1
  N  N444  1  0.58920000  0.87726000  0.82286000  1
  N  N445  1  0.91080000  0.37726000  0.32286000  1
  N  N446  1  0.05040000  0.22056000  0.13126000  1
  N  N447  1  0.44960000  0.72056000  0.63126000  1
  N  N448  1  0.73540000  0.58133000  0.41583000  1
  N  N449  1  0.76460000  0.08133000  0.91583000  1
  N  N450  1  0.04040000  0.49011000  0.31871000  1
  N  N451  1  0.45960000  0.99011000  0.81871000  1
  N  N452  1  0.13490000  0.20540000  0.02820000  1
  N  N453  1  0.36510000  0.70540000  0.52820000  1
  N  N454  1  0.51190000  0.83146000  0.56996000  1
  N  N455  1  0.98810000  0.33146000  0.06996000  1
  N  N456  1  0.16960000  0.64730000  0.35690000  1
  N  N457  1  0.33040000  0.14730000  0.85690000  1
  N  N458  1  0.66540000  0.56666000  0.21176000  1
  N  N459  1  0.83460000  0.06666000  0.71176000  1
  N  N460  1  0.06720000  0.61475000  0.25415000  1
  N  N461  1  0.43280000  0.11475000  0.75415000  1
  N  N462  1  0.57750000  0.97976000  0.56086000  1
  N  N463  1  0.92250000  0.47976000  0.06086000  1
  N  N464  1  0.02650000  0.66681000  0.20151000  1
  N  N465  1  0.47350000  0.16681000  0.70151000  1
  N  N466  1  0.16770000  0.77307000  0.29557000  1
  N  N467  1  0.33230000  0.27307000  0.79557000  1
  N  N468  1  0.66770000  0.72693000  0.20443000  1
  N  N469  1  0.83230000  0.22693000  0.70443000  1
  N  N470  1  0.52650000  0.83319000  0.29849000  1
  N  N471  1  0.97350000  0.33319000  0.79849000  1
  N  N472  1  0.07750000  0.52024000  0.93914000  1
  N  N473  1  0.42250000  0.02024000  0.43914000  1
  N  N474  1  0.56720000  0.88525000  0.24585000  1
  N  N475  1  0.93280000  0.38525000  0.74585000  1
  N  N476  1  0.16540000  0.93334000  0.28824000  1
  N  N477  1  0.33460000  0.43334000  0.78824000  1
  N  N478  1  0.66960000  0.85270000  0.14310000  1
  N  N479  1  0.83040000  0.35270000  0.64310000  1
  N  N480  1  0.01190000  0.66854000  0.93004000  1
  N  N481  1  0.48810000  0.16854000  0.43004000  1
  N  N482  1  0.63490000  0.29460000  0.47180000  1
  N  N483  1  0.86510000  0.79460000  0.97180000  1
  N  N484  1  0.54040000  0.00989000  0.18129000  1
  N  N485  1  0.95960000  0.50989000  0.68129000  1
  N  N486  1  0.23540000  0.91867000  0.08417000  1
  N  N487  1  0.26460000  0.41867000  0.58417000  1
  N  N488  1  0.55040000  0.27944000  0.36874000  1
  N  N489  1  0.94960000  0.77944000  0.86874000  1
  N  N490  1  0.08920000  0.62274000  0.67714000  1
  N  N491  1  0.41080000  0.12274000  0.17714000  1
  N  N492  1  0.05820000  0.79250000  0.82370000  1
  N  N493  1  0.44180000  0.29250000  0.32370000  1
  N  N494  1  0.18310000  0.07487000  0.08627000  1
  N  N495  1  0.31690000  0.57487000  0.58627000  1
  O  O496  1  0.53310000  0.61373000  0.55313000  1
  O  O497  1  0.96690000  0.11373000  0.05313000  1
  O  O498  1  0.59540000  0.57832000  0.49902000  1
  O  O499  1  0.90460000  0.07832000  0.99902000  1
  O  O500  1  0.07880000  0.04000000  0.83720000  1
  O  O501  1  0.42120000  0.54000000  0.33720000  1
  O  O502  1  0.23370000  0.30140000  0.07820000  1
  O  O503  1  0.26630000  0.80140000  0.57820000  1
  O  O504  1  0.22770000  0.06625000  0.80500000  1
  O  O505  1  0.27230000  0.56625000  0.30500000  1
  O  O506  1  0.14940000  0.86919000  0.54139000  1
  O  O507  1  0.35060000  0.36919000  0.04139000  1
  O  O508  1  0.52060000  0.20129000  0.83629000  1
  O  O509  1  0.97940000  0.70129000  0.33629000  1
  O  O510  1  0.55270000  0.28790000  0.88570000  1
  O  O511  1  0.94730000  0.78790000  0.38570000  1
  O  O512  1  0.05270000  0.21210000  0.61430000  1
  O  O513  1  0.44730000  0.71210000  0.11430000  1
  O  O514  1  0.02060000  0.29871000  0.66371000  1
  O  O515  1  0.47940000  0.79871000  0.16371000  1
  O  O516  1  0.64940000  0.63081000  0.95861000  1
  O  O517  1  0.85060000  0.13081000  0.45861000  1
  O  O518  1  0.72770000  0.43375000  0.69500000  1
  O  O519  1  0.77230000  0.93375000  0.19500000  1
  O  O520  1  0.73370000  0.19860000  0.42180000  1
  O  O521  1  0.76630000  0.69860000  0.92180000  1
  O  O522  1  0.57880000  0.46000000  0.66280000  1
  O  O523  1  0.92120000  0.96000000  0.16280000  1
  O  O524  1  0.09540000  0.92168000  0.00098000  1
  O  O525  1  0.40460000  0.42168000  0.50098000  1
  O  O526  1  0.03310000  0.88627000  0.94687000  1
  O  O527  1  0.46690000  0.38627000  0.44687000  1
