# generated using pymatgen
data_CuH10C14(NO2)2
_symmetry_space_group_name_H-M   'P 1'
_cell_length_a   18.62100000
_cell_length_b   18.62100000
_cell_length_c   25.62830000
_cell_angle_alpha   68.69760000
_cell_angle_beta   68.69760000
_cell_angle_gamma   60.00000000
_symmetry_Int_Tables_number   1
_chemical_formula_structural   CuH10C14(NO2)2
_chemical_formula_sum   'Cu12 H120 C168 N24 O48'
_cell_volume   6985.97666601
_cell_formula_units_Z   12
loop_
 _symmetry_equiv_pos_site_id
 _symmetry_equiv_pos_as_xyz
  1  'x, y, z'
loop_
 _atom_site_type_symbol
 _atom_site_label
 _atom_site_symmetry_multiplicity
 _atom_site_fract_x
 _atom_site_fract_y
 _atom_site_fract_z
 _atom_site_occupancy
  Cu  Cu0  1  0.25636000  0.81270000  0.70346000  1
  Cu  Cu1  1  0.18730000  0.77252000  0.29654000  1
  Cu  Cu2  1  0.31270000  0.75636000  0.20346000  1
  Cu  Cu3  1  0.77252000  0.74364000  0.29654000  1
  Cu  Cu4  1  0.75636000  0.72748000  0.20346000  1
  Cu  Cu5  1  0.27252000  0.68730000  0.79654000  1
  Cu  Cu6  1  0.72748000  0.31270000  0.20346000  1
  Cu  Cu7  1  0.24364000  0.27252000  0.79654000  1
  Cu  Cu8  1  0.22748000  0.25636000  0.70346000  1
  Cu  Cu9  1  0.68730000  0.24364000  0.79654000  1
  Cu  Cu10  1  0.81270000  0.22748000  0.70346000  1
  Cu  Cu11  1  0.74364000  0.18730000  0.29654000  1
  H  H12  1  0.76980000  0.99860000  0.34450000  1
  H  H13  1  0.26780000  0.99370000  0.75980000  1
  H  H14  1  0.67480000  0.98670000  0.10880000  1
  H  H15  1  0.99370000  0.97870000  0.75980000  1
  H  H16  1  0.78730000  0.97650000  0.88880000  1
  H  H17  1  0.24630000  0.96070000  0.44100000  1
  H  H18  1  0.73380000  0.94840000  0.52030000  1
  H  H19  1  0.91310000  0.92600000  0.43360000  1
  H  H20  1  0.72730000  0.91310000  0.43360000  1
  H  H21  1  0.74950000  0.89760000  0.98210000  1
  H  H22  1  0.36850000  0.89200000  0.96590000  1
  H  H23  1  0.99860000  0.88710000  0.34450000  1
  H  H24  1  0.24950000  0.87080000  0.48210000  1
  H  H25  1  0.39200000  0.86850000  0.46590000  1
  H  H26  1  0.74630000  0.85200000  0.94100000  1
  H  H27  1  0.28730000  0.84740000  0.38880000  1
  H  H28  1  0.25090000  0.83800000  0.57990000  1
  H  H29  1  0.75090000  0.83120000  0.07990000  1
  H  H30  1  0.51330000  0.82520000  0.39120000  1
  H  H31  1  0.94840000  0.79750000  0.52030000  1
  H  H32  1  0.34740000  0.78730000  0.88880000  1
  H  H33  1  0.89200000  0.77360000  0.96590000  1
  H  H34  1  0.58690000  0.77270000  0.06640000  1
  H  H35  1  0.01330000  0.77030000  0.89120000  1
  H  H36  1  0.88710000  0.76980000  0.34450000  1
  H  H37  1  0.49370000  0.76780000  0.25980000  1
  H  H38  1  0.55160000  0.76620000  0.97970000  1
  H  H39  1  0.64800000  0.75370000  0.55900000  1
  H  H40  1  0.33800000  0.75090000  0.07990000  1
  H  H41  1  0.60240000  0.75050000  0.51790000  1
  H  H42  1  0.37080000  0.74950000  0.98210000  1
  H  H43  1  0.66880000  0.74910000  0.42010000  1
  H  H44  1  0.46070000  0.74630000  0.94100000  1
  H  H45  1  0.79750000  0.73380000  0.52030000  1
  H  H46  1  0.02130000  0.73220000  0.24020000  1
  H  H47  1  0.50140000  0.73020000  0.15550000  1
  H  H48  1  0.17480000  0.72970000  0.60880000  1
  H  H49  1  0.92600000  0.72730000  0.43360000  1
  H  H50  1  0.13150000  0.72640000  0.53410000  1
  H  H51  1  0.52350000  0.71270000  0.61120000  1
  H  H52  1  0.76620000  0.70250000  0.97970000  1
  H  H53  1  0.22970000  0.67480000  0.10880000  1
  H  H54  1  0.16200000  0.66880000  0.42010000  1
  H  H55  1  0.16880000  0.66200000  0.92010000  1
  H  H56  1  0.02350000  0.65260000  0.11120000  1
  H  H57  1  0.03930000  0.64800000  0.55900000  1
  H  H58  1  0.22640000  0.63150000  0.03410000  1
  H  H59  1  0.10240000  0.62920000  0.01790000  1
  H  H60  1  0.73020000  0.61290000  0.15550000  1
  H  H61  1  0.72640000  0.60800000  0.53410000  1
  H  H62  1  0.12920000  0.60240000  0.51790000  1
  H  H63  1  0.57400000  0.58690000  0.06640000  1
  H  H64  1  0.77270000  0.57400000  0.06640000  1
  H  H65  1  0.70250000  0.55160000  0.97970000  1
  H  H66  1  0.14800000  0.53930000  0.05900000  1
  H  H67  1  0.15260000  0.52350000  0.61120000  1
  H  H68  1  0.23220000  0.52130000  0.74020000  1
  H  H69  1  0.27030000  0.51330000  0.39120000  1
  H  H70  1  0.52130000  0.50630000  0.74020000  1
  H  H71  1  0.61290000  0.50140000  0.15550000  1
  H  H72  1  0.38710000  0.49860000  0.84450000  1
  H  H73  1  0.47870000  0.49370000  0.25980000  1
  H  H74  1  0.72970000  0.48670000  0.60880000  1
  H  H75  1  0.76780000  0.47870000  0.25980000  1
  H  H76  1  0.84740000  0.47650000  0.38880000  1
  H  H77  1  0.85200000  0.46070000  0.94100000  1
  H  H78  1  0.29750000  0.44840000  0.02030000  1
  H  H79  1  0.22730000  0.42600000  0.93360000  1
  H  H80  1  0.42600000  0.41310000  0.93360000  1
  H  H81  1  0.87080000  0.39760000  0.48210000  1
  H  H82  1  0.27360000  0.39200000  0.46590000  1
  H  H83  1  0.26980000  0.38710000  0.84450000  1
  H  H84  1  0.89760000  0.37080000  0.98210000  1
  H  H85  1  0.77360000  0.36850000  0.96590000  1
  H  H86  1  0.96070000  0.35200000  0.44100000  1
  H  H87  1  0.97650000  0.34740000  0.88880000  1
  H  H88  1  0.83120000  0.33800000  0.07990000  1
  H  H89  1  0.83800000  0.33120000  0.57990000  1
  H  H90  1  0.77030000  0.32520000  0.89120000  1
  H  H91  1  0.23380000  0.29750000  0.02030000  1
  H  H92  1  0.47650000  0.28730000  0.38880000  1
  H  H93  1  0.86850000  0.27360000  0.46590000  1
  H  H94  1  0.07400000  0.27270000  0.56640000  1
  H  H95  1  0.82520000  0.27030000  0.39120000  1
  H  H96  1  0.49860000  0.26980000  0.84450000  1
  H  H97  1  0.97870000  0.26780000  0.75980000  1
  H  H98  1  0.20250000  0.26620000  0.47970000  1
  H  H99  1  0.53930000  0.25370000  0.05900000  1
  H  H100  1  0.33120000  0.25090000  0.57990000  1
  H  H101  1  0.62920000  0.25050000  0.01790000  1
  H  H102  1  0.39760000  0.24950000  0.48210000  1
  H  H103  1  0.66200000  0.24910000  0.92010000  1
  H  H104  1  0.35200000  0.24630000  0.44100000  1
  H  H105  1  0.44840000  0.23380000  0.02030000  1
  H  H106  1  0.50630000  0.23220000  0.74020000  1
  H  H107  1  0.11290000  0.23020000  0.65550000  1
  H  H108  1  0.98670000  0.22970000  0.10880000  1
  H  H109  1  0.41310000  0.22730000  0.93360000  1
  H  H110  1  0.10800000  0.22640000  0.03410000  1
  H  H111  1  0.65260000  0.21270000  0.11120000  1
  H  H112  1  0.05160000  0.20250000  0.47970000  1
  H  H113  1  0.48670000  0.17480000  0.60880000  1
  H  H114  1  0.24910000  0.16880000  0.92010000  1
  H  H115  1  0.74910000  0.16200000  0.42010000  1
  H  H116  1  0.71270000  0.15260000  0.61120000  1
  H  H117  1  0.25370000  0.14800000  0.05900000  1
  H  H118  1  0.60800000  0.13150000  0.53410000  1
  H  H119  1  0.75050000  0.12920000  0.51790000  1
  H  H120  1  0.00140000  0.11290000  0.65550000  1
  H  H121  1  0.63150000  0.10800000  0.03410000  1
  H  H122  1  0.25050000  0.10240000  0.01790000  1
  H  H123  1  0.27270000  0.08690000  0.56640000  1
  H  H124  1  0.08690000  0.07400000  0.56640000  1
  H  H125  1  0.26620000  0.05160000  0.47970000  1
  H  H126  1  0.75370000  0.03930000  0.55900000  1
  H  H127  1  0.21270000  0.02350000  0.11120000  1
  H  H128  1  0.00630000  0.02130000  0.24020000  1
  H  H129  1  0.32520000  0.01330000  0.89120000  1
  H  H130  1  0.73220000  0.00630000  0.24020000  1
  H  H131  1  0.23020000  0.00140000  0.65550000  1
  C  C132  1  0.88304000  0.99084000  0.82088000  1
  C  C133  1  0.73510000  0.98610000  0.48370000  1
  C  C134  1  0.24753000  0.98383000  0.62061000  1
  C  C135  1  0.70692000  0.98262000  0.17834000  1
  C  C136  1  0.32134000  0.97964000  0.87278000  1
  C  C137  1  0.28573000  0.96873000  0.79511000  1
  C  C138  1  0.73649000  0.96039000  0.43063000  1
  C  C139  1  0.96873000  0.95043000  0.79511000  1
  C  C140  1  0.84584000  0.94844000  0.87158000  1
  C  C141  1  0.26266000  0.94156000  0.52152000  1
  C  C142  1  0.16848000  0.91936000  0.20624000  1
  C  C143  1  0.27505000  0.91155000  0.46995000  1
  C  C144  1  0.34376000  0.89336000  0.89732000  1
  C  C145  1  0.72872000  0.89122000  0.20474000  1
  C  C146  1  0.25555000  0.88855000  0.57555000  1
  C  C147  1  0.30524000  0.88304000  0.82088000  1
  C  C148  1  0.96039000  0.87249000  0.43063000  1
  C  C149  1  0.01738000  0.86788000  0.82166000  1
  C  C150  1  0.89336000  0.86556000  0.89732000  1
  C  C151  1  0.01617000  0.85197000  0.37939000  1
  C  C152  1  0.33414000  0.84584000  0.87158000  1
  C  C153  1  0.39336000  0.84376000  0.39732000  1
  C  C154  1  0.77505000  0.84345000  0.96995000  1
  C  C155  1  0.34584000  0.83414000  0.37158000  1
  C  C156  1  0.29408000  0.83152000  0.79376000  1
  C  C157  1  0.97964000  0.82624000  0.87278000  1
  C  C158  1  0.10878000  0.82468000  0.79526000  1
  C  C159  1  0.47964000  0.82134000  0.37278000  1
  C  C160  1  0.38304000  0.80524000  0.32088000  1
  C  C161  1  0.98610000  0.79510000  0.48370000  1
  C  C162  1  0.33152000  0.79408000  0.29376000  1
  C  C163  1  0.51738000  0.79308000  0.32166000  1
  C  C164  1  0.46873000  0.78573000  0.29511000  1
  C  C165  1  0.75555000  0.78035000  0.07555000  1
  C  C166  1  0.41155000  0.77505000  0.96995000  1
  C  C167  1  0.76266000  0.77426000  0.02152000  1
  C  C168  1  0.60878000  0.77128000  0.29526000  1
  C  C169  1  0.51390000  0.76490000  0.01630000  1
  C  C170  1  0.53961000  0.76351000  0.06937000  1
  C  C171  1  0.44156000  0.76266000  0.02152000  1
  C  C172  1  0.38855000  0.75555000  0.07555000  1
  C  C173  1  0.85197000  0.75247000  0.37939000  1
  C  C174  1  0.48383000  0.74753000  0.12061000  1
  C  C175  1  0.71965000  0.74445000  0.42445000  1
  C  C176  1  0.72574000  0.73734000  0.47848000  1
  C  C177  1  0.87249000  0.73649000  0.43063000  1
  C  C178  1  0.79510000  0.73510000  0.48370000  1
  C  C179  1  0.17532000  0.72872000  0.20474000  1
  C  C180  1  0.05844000  0.72574000  0.47848000  1
  C  C181  1  0.65655000  0.72495000  0.53005000  1
  C  C182  1  0.11145000  0.71965000  0.42445000  1
  C  C183  1  0.04957000  0.71427000  0.20489000  1
  C  C184  1  0.13212000  0.70692000  0.17834000  1
  C  C185  1  0.91936000  0.70592000  0.20624000  1
  C  C186  1  0.76490000  0.70490000  0.01630000  1
  C  C187  1  0.00916000  0.69476000  0.17912000  1
  C  C188  1  0.17376000  0.67866000  0.12722000  1
  C  C189  1  0.22872000  0.67532000  0.70474000  1
  C  C190  1  0.17866000  0.67376000  0.62722000  1
  C  C191  1  0.41936000  0.66848000  0.70624000  1
  C  C192  1  0.05156000  0.66586000  0.12842000  1
  C  C193  1  0.08845000  0.65655000  0.53005000  1
  C  C194  1  0.13444000  0.65624000  0.10268000  1
  C  C195  1  0.55156000  0.65416000  0.62842000  1
  C  C196  1  0.74753000  0.64803000  0.12061000  1
  C  C197  1  0.15624000  0.63444000  0.60268000  1
  C  C198  1  0.20692000  0.63212000  0.67834000  1
  C  C199  1  0.76351000  0.62751000  0.06937000  1
  C  C200  1  0.50916000  0.61696000  0.67912000  1
  C  C201  1  0.21965000  0.61145000  0.92445000  1
  C  C202  1  0.32468000  0.60878000  0.29526000  1
  C  C203  1  0.63444000  0.60664000  0.60268000  1
  C  C204  1  0.15655000  0.58845000  0.03005000  1
  C  C205  1  0.79408000  0.58064000  0.29376000  1
  C  C206  1  0.22574000  0.55844000  0.97848000  1
  C  C207  1  0.16586000  0.55156000  0.62842000  1
  C  C208  1  0.21427000  0.54957000  0.70489000  1
  C  C209  1  0.62751000  0.53961000  0.06937000  1
  C  C210  1  0.54957000  0.53127000  0.70489000  1
  C  C211  1  0.67376000  0.52036000  0.62722000  1
  C  C212  1  0.36788000  0.51738000  0.32166000  1
  C  C213  1  0.35197000  0.51617000  0.87939000  1
  C  C214  1  0.70490000  0.51390000  0.01630000  1
  C  C215  1  0.19476000  0.50916000  0.67912000  1
  C  C216  1  0.80524000  0.49084000  0.32088000  1
  C  C217  1  0.29510000  0.48610000  0.98370000  1
  C  C218  1  0.64803000  0.48383000  0.12061000  1
  C  C219  1  0.63212000  0.48262000  0.67834000  1
  C  C220  1  0.32624000  0.47964000  0.37278000  1
  C  C221  1  0.45043000  0.46873000  0.29511000  1
  C  C222  1  0.37249000  0.46039000  0.93063000  1
  C  C223  1  0.78573000  0.45043000  0.29511000  1
  C  C224  1  0.83414000  0.44844000  0.37158000  1
  C  C225  1  0.77426000  0.44156000  0.02152000  1
  C  C226  1  0.20592000  0.41936000  0.70624000  1
  C  C227  1  0.84345000  0.41155000  0.96995000  1
  C  C228  1  0.36556000  0.39336000  0.39732000  1
  C  C229  1  0.67532000  0.39122000  0.70474000  1
  C  C230  1  0.78035000  0.38855000  0.07555000  1
  C  C231  1  0.49084000  0.38304000  0.32088000  1
  C  C232  1  0.23649000  0.37249000  0.93063000  1
  C  C233  1  0.79308000  0.36788000  0.32166000  1
  C  C234  1  0.84376000  0.36556000  0.39732000  1
  C  C235  1  0.25247000  0.35197000  0.87939000  1
  C  C236  1  0.44844000  0.34584000  0.37158000  1
  C  C237  1  0.86556000  0.34376000  0.89732000  1
  C  C238  1  0.91155000  0.34345000  0.46995000  1
  C  C239  1  0.94844000  0.33414000  0.87158000  1
  C  C240  1  0.58064000  0.33152000  0.29376000  1
  C  C241  1  0.82134000  0.32624000  0.37278000  1
  C  C242  1  0.77128000  0.32468000  0.29526000  1
  C  C243  1  0.82624000  0.32134000  0.87278000  1
  C  C244  1  0.99084000  0.30524000  0.82088000  1
  C  C245  1  0.23510000  0.29510000  0.98370000  1
  C  C246  1  0.08064000  0.29408000  0.79376000  1
  C  C247  1  0.86788000  0.29308000  0.82166000  1
  C  C248  1  0.95043000  0.28573000  0.79511000  1
  C  C249  1  0.88855000  0.28035000  0.57555000  1
  C  C250  1  0.34345000  0.27505000  0.46995000  1
  C  C251  1  0.94156000  0.27426000  0.52152000  1
  C  C252  1  0.82468000  0.27128000  0.79526000  1
  C  C253  1  0.20490000  0.26490000  0.51630000  1
  C  C254  1  0.12751000  0.26351000  0.56937000  1
  C  C255  1  0.27426000  0.26266000  0.52152000  1
  C  C256  1  0.28035000  0.25555000  0.57555000  1
  C  C257  1  0.51617000  0.25247000  0.87939000  1
  C  C258  1  0.14803000  0.24753000  0.62061000  1
  C  C259  1  0.61145000  0.24445000  0.92445000  1
  C  C260  1  0.55844000  0.23734000  0.97848000  1
  C  C261  1  0.46039000  0.23649000  0.93063000  1
  C  C262  1  0.48610000  0.23510000  0.98370000  1
  C  C263  1  0.39122000  0.22872000  0.70474000  1
  C  C264  1  0.23734000  0.22574000  0.97848000  1
  C  C265  1  0.58845000  0.22495000  0.03005000  1
  C  C266  1  0.24445000  0.21965000  0.92445000  1
  C  C267  1  0.53127000  0.21427000  0.70489000  1
  C  C268  1  0.48262000  0.20692000  0.67834000  1
  C  C269  1  0.66848000  0.20592000  0.70624000  1
  C  C270  1  0.01390000  0.20490000  0.51630000  1
  C  C271  1  0.61696000  0.19476000  0.67912000  1
  C  C272  1  0.52036000  0.17866000  0.62722000  1
  C  C273  1  0.89122000  0.17532000  0.20474000  1
  C  C274  1  0.02036000  0.17376000  0.12722000  1
  C  C275  1  0.70592000  0.16848000  0.20624000  1
  C  C276  1  0.65416000  0.16586000  0.62842000  1
  C  C277  1  0.22495000  0.15655000  0.03005000  1
  C  C278  1  0.60664000  0.15624000  0.60268000  1
  C  C279  1  0.66586000  0.15416000  0.12842000  1
  C  C280  1  0.98383000  0.14803000  0.62061000  1
  C  C281  1  0.10664000  0.13444000  0.10268000  1
  C  C282  1  0.98262000  0.13212000  0.17834000  1
  C  C283  1  0.03961000  0.12751000  0.56937000  1
  C  C284  1  0.69476000  0.11696000  0.17912000  1
  C  C285  1  0.74445000  0.11145000  0.42445000  1
  C  C286  1  0.27128000  0.10878000  0.79526000  1
  C  C287  1  0.65624000  0.10664000  0.10268000  1
  C  C288  1  0.72495000  0.08845000  0.53005000  1
  C  C289  1  0.83152000  0.08064000  0.79376000  1
  C  C290  1  0.73734000  0.05844000  0.47848000  1
  C  C291  1  0.15416000  0.05156000  0.12842000  1
  C  C292  1  0.03127000  0.04957000  0.20489000  1
  C  C293  1  0.26351000  0.03961000  0.56937000  1
  C  C294  1  0.71427000  0.03127000  0.20489000  1
  C  C295  1  0.67866000  0.02036000  0.12722000  1
  C  C296  1  0.29308000  0.01738000  0.82166000  1
  C  C297  1  0.75247000  0.01617000  0.37939000  1
  C  C298  1  0.26490000  0.01390000  0.51630000  1
  C  C299  1  0.11696000  0.00916000  0.17912000  1
  N  N300  1  0.25481000  0.90727000  0.62427000  1
  N  N301  1  0.35685000  0.87455000  0.44745000  1
  N  N302  1  0.37455000  0.85685000  0.94745000  1
  N  N303  1  0.85685000  0.82115000  0.94745000  1
  N  N304  1  0.09273000  0.78635000  0.37573000  1
  N  N305  1  0.40727000  0.75481000  0.12427000  1
  N  N306  1  0.78635000  0.74519000  0.37573000  1
  N  N307  1  0.75481000  0.71365000  0.12427000  1
  N  N308  1  0.12545000  0.67885000  0.55255000  1
  N  N309  1  0.67885000  0.64315000  0.55255000  1
  N  N310  1  0.17885000  0.62545000  0.05255000  1
  N  N311  1  0.28635000  0.59273000  0.87573000  1
  N  N312  1  0.71365000  0.40727000  0.12427000  1
  N  N313  1  0.82115000  0.37455000  0.94745000  1
  N  N314  1  0.32115000  0.35685000  0.44745000  1
  N  N315  1  0.87455000  0.32115000  0.44745000  1
  N  N316  1  0.24519000  0.28635000  0.87573000  1
  N  N317  1  0.21365000  0.25481000  0.62427000  1
  N  N318  1  0.59273000  0.24519000  0.87573000  1
  N  N319  1  0.90727000  0.21365000  0.62427000  1
  N  N320  1  0.14315000  0.17885000  0.05255000  1
  N  N321  1  0.62545000  0.14315000  0.05255000  1
  N  N322  1  0.64315000  0.12545000  0.55255000  1
  N  N323  1  0.74519000  0.09273000  0.37573000  1
  O  O324  1  0.13486000  0.89012000  0.25724000  1
  O  O325  1  0.24057000  0.87949000  0.17798000  1
  O  O326  1  0.28222000  0.86514000  0.74276000  1
  O  O327  1  0.74301000  0.86289000  0.25418000  1
  O  O328  1  0.13711000  0.86008000  0.74582000  1
  O  O329  1  0.72987000  0.84821000  0.17579000  1
  O  O330  1  0.25943000  0.79804000  0.32202000  1
  O  O331  1  0.36514000  0.78222000  0.24276000  1
  O  O332  1  0.65179000  0.77013000  0.32421000  1
  O  O333  1  0.29804000  0.75943000  0.82202000  1
  O  O334  1  0.63711000  0.75699000  0.24582000  1
  O  O335  1  0.15179000  0.75387000  0.82421000  1
  O  O336  1  0.22987000  0.74613000  0.67579000  1
  O  O337  1  0.13992000  0.74301000  0.25418000  1
  O  O338  1  0.37949000  0.74057000  0.67798000  1
  O  O339  1  0.24613000  0.72987000  0.17579000  1
  O  O340  1  0.89012000  0.71778000  0.25724000  1
  O  O341  1  0.87949000  0.70196000  0.17798000  1
  O  O342  1  0.25387000  0.65179000  0.32421000  1
  O  O343  1  0.24301000  0.63992000  0.75418000  1
  O  O344  1  0.36008000  0.63711000  0.24582000  1
  O  O345  1  0.39012000  0.63486000  0.75724000  1
  O  O346  1  0.79804000  0.62051000  0.32202000  1
  O  O347  1  0.78222000  0.60988000  0.24276000  1
  O  O348  1  0.21778000  0.39012000  0.75724000  1
  O  O349  1  0.20196000  0.37949000  0.67798000  1
  O  O350  1  0.60988000  0.36514000  0.24276000  1
  O  O351  1  0.63992000  0.36289000  0.75418000  1
  O  O352  1  0.75699000  0.36008000  0.24582000  1
  O  O353  1  0.74613000  0.34821000  0.67579000  1
  O  O354  1  0.12051000  0.29804000  0.82202000  1
  O  O355  1  0.10988000  0.28222000  0.74276000  1
  O  O356  1  0.75387000  0.27013000  0.82421000  1
  O  O357  1  0.62051000  0.25943000  0.32202000  1
  O  O358  1  0.86008000  0.25699000  0.74582000  1
  O  O359  1  0.77013000  0.25387000  0.32421000  1
  O  O360  1  0.84821000  0.24613000  0.17579000  1
  O  O361  1  0.36289000  0.24301000  0.75418000  1
  O  O362  1  0.70196000  0.24057000  0.17798000  1
  O  O363  1  0.34821000  0.22987000  0.67579000  1
  O  O364  1  0.63486000  0.21778000  0.75724000  1
  O  O365  1  0.74057000  0.20196000  0.67798000  1
  O  O366  1  0.27013000  0.15179000  0.82421000  1
  O  O367  1  0.86289000  0.13992000  0.25418000  1
  O  O368  1  0.25699000  0.13711000  0.74582000  1
  O  O369  1  0.71778000  0.13486000  0.25724000  1
  O  O370  1  0.75943000  0.12051000  0.82202000  1
  O  O371  1  0.86514000  0.10988000  0.74276000  1
