# generated using pymatgen
data_MgH2(CO2)2
_symmetry_space_group_name_H-M   'P 1'
_cell_length_a   9.90470000
_cell_length_b   11.40070000
_cell_length_c   14.53570000
_cell_angle_alpha   91.31700000
_cell_angle_beta   90.00000000
_cell_angle_gamma   90.00000000
_symmetry_Int_Tables_number   1
_chemical_formula_structural   MgH2(CO2)2
_chemical_formula_sum   'Mg12 H24 C24 O48'
_cell_volume   1640.94510834
_cell_formula_units_Z   12
loop_
 _symmetry_equiv_pos_site_id
 _symmetry_equiv_pos_as_xyz
  1  'x, y, z'
loop_
 _atom_site_type_symbol
 _atom_site_label
 _atom_site_symmetry_multiplicity
 _atom_site_fract_x
 _atom_site_fract_y
 _atom_site_fract_z
 _atom_site_occupancy
  Mg  Mg0  1  0.00000000  0.00000000  0.00000000  1
  Mg  Mg1  1  0.00000000  0.50000000  0.00000000  1
  Mg  Mg2  1  0.07920000  0.75528000  0.13491000  1
  Mg  Mg3  1  0.11237000  0.26127000  0.69041000  1
  Mg  Mg4  1  0.38763000  0.76127000  0.19041000  1
  Mg  Mg5  1  0.42080000  0.25528000  0.63491000  1
  Mg  Mg6  1  0.50000000  0.00000000  0.50000000  1
  Mg  Mg7  1  0.50000000  0.50000000  0.50000000  1
  Mg  Mg8  1  0.57920000  0.74472000  0.36509000  1
  Mg  Mg9  1  0.61237000  0.23873000  0.80959000  1
  Mg  Mg10  1  0.88763000  0.73873000  0.30959000  1
  Mg  Mg11  1  0.92080000  0.24472000  0.86509000  1
  H  H12  1  0.03700000  0.52240000  0.73760000  1
  H  H13  1  0.12250000  0.06230000  0.54190000  1
  H  H14  1  0.15220000  0.30230000  0.07230000  1
  H  H15  1  0.20830000  0.03350000  0.77850000  1
  H  H16  1  0.21310000  0.50520000  0.52850000  1
  H  H17  1  0.23970000  0.84460000  0.37280000  1
  H  H18  1  0.26030000  0.34460000  0.87280000  1
  H  H19  1  0.28690000  0.00520000  0.02850000  1
  H  H20  1  0.29170000  0.53350000  0.27850000  1
  H  H21  1  0.34780000  0.80230000  0.57230000  1
  H  H22  1  0.37750000  0.56230000  0.04190000  1
  H  H23  1  0.46300000  0.02240000  0.23760000  1
  H  H24  1  0.53700000  0.97760000  0.76240000  1
  H  H25  1  0.62250000  0.43770000  0.95810000  1
  H  H26  1  0.65220000  0.19770000  0.42770000  1
  H  H27  1  0.70830000  0.46650000  0.72150000  1
  H  H28  1  0.71310000  0.99480000  0.97150000  1
  H  H29  1  0.73970000  0.65540000  0.12720000  1
  H  H30  1  0.76030000  0.15540000  0.62720000  1
  H  H31  1  0.78690000  0.49480000  0.47150000  1
  H  H32  1  0.79170000  0.96650000  0.22150000  1
  H  H33  1  0.84780000  0.69770000  0.92770000  1
  H  H34  1  0.87750000  0.93770000  0.45810000  1
  H  H35  1  0.96300000  0.47760000  0.26240000  1
  C  C36  1  0.01712000  0.48074000  0.79011000  1
  C  C37  1  0.09590000  0.25920000  0.03305000  1
  C  C38  1  0.14104000  0.05715000  0.81954000  1
  C  C39  1  0.17057000  0.81934000  0.33383000  1
  C  C40  1  0.21351000  0.07957000  0.55002000  1
  C  C41  1  0.22874000  0.43924000  0.56348000  1
  C  C42  1  0.27126000  0.93924000  0.06348000  1
  C  C43  1  0.28649000  0.57957000  0.05002000  1
  C  C44  1  0.32943000  0.31934000  0.83383000  1
  C  C45  1  0.35896000  0.55715000  0.31954000  1
  C  C46  1  0.40410000  0.75920000  0.53305000  1
  C  C47  1  0.48288000  0.98074000  0.29011000  1
  C  C48  1  0.51712000  0.01926000  0.70989000  1
  C  C49  1  0.59590000  0.24080000  0.46695000  1
  C  C50  1  0.64104000  0.44285000  0.68046000  1
  C  C51  1  0.67057000  0.68066000  0.16617000  1
  C  C52  1  0.71351000  0.42043000  0.94998000  1
  C  C53  1  0.72874000  0.06076000  0.93652000  1
  C  C54  1  0.77126000  0.56076000  0.43652000  1
  C  C55  1  0.78649000  0.92043000  0.44998000  1
  C  C56  1  0.82943000  0.18066000  0.66617000  1
  C  C57  1  0.85896000  0.94285000  0.18046000  1
  C  C58  1  0.90410000  0.74080000  0.96695000  1
  C  C59  1  0.98288000  0.51926000  0.20989000  1
  O  O60  1  0.00310000  0.53790000  0.86259000  1
  O  O61  1  0.00675000  0.36979000  0.78084000  1
  O  O62  1  0.02476000  0.31631000  0.97550000  1
  O  O63  1  0.05814000  0.80352000  0.36899000  1
  O  O64  1  0.07975000  0.15267000  0.80280000  1
  O  O65  1  0.09558000  0.15166000  0.04047000  1
  O  O66  1  0.11924000  0.99330000  0.88521000  1
  O  O67  1  0.12971000  0.39568000  0.60196000  1
  O  O68  1  0.14981000  0.90216000  0.06729000  1
  O  O69  1  0.19972000  0.80400000  0.24879000  1
  O  O70  1  0.20513000  0.52347000  0.00230000  1
  O  O71  1  0.24348000  0.15984000  0.61001000  1
  O  O72  1  0.25652000  0.65984000  0.11001000  1
  O  O73  1  0.29487000  0.02347000  0.50230000  1
  O  O74  1  0.30028000  0.30400000  0.74879000  1
  O  O75  1  0.35019000  0.40216000  0.56729000  1
  O  O76  1  0.37029000  0.89568000  0.10196000  1
  O  O77  1  0.38076000  0.49330000  0.38521000  1
  O  O78  1  0.40442000  0.65166000  0.54047000  1
  O  O79  1  0.42025000  0.65267000  0.30280000  1
  O  O80  1  0.44186000  0.30352000  0.86899000  1
  O  O81  1  0.47524000  0.81631000  0.47550000  1
  O  O82  1  0.49325000  0.86979000  0.28084000  1
  O  O83  1  0.49690000  0.03790000  0.36259000  1
  O  O84  1  0.50310000  0.96210000  0.63741000  1
  O  O85  1  0.50675000  0.13021000  0.71916000  1
  O  O86  1  0.52476000  0.18369000  0.52450000  1
  O  O87  1  0.55814000  0.69648000  0.13101000  1
  O  O88  1  0.57975000  0.34733000  0.69720000  1
  O  O89  1  0.59558000  0.34834000  0.45953000  1
  O  O90  1  0.61924000  0.50670000  0.61479000  1
  O  O91  1  0.62971000  0.10432000  0.89804000  1
  O  O92  1  0.64981000  0.59784000  0.43271000  1
  O  O93  1  0.69972000  0.69600000  0.25121000  1
  O  O94  1  0.70513000  0.97653000  0.49770000  1
  O  O95  1  0.74348000  0.34016000  0.88999000  1
  O  O96  1  0.75652000  0.84016000  0.38999000  1
  O  O97  1  0.79487000  0.47653000  0.99770000  1
  O  O98  1  0.80028000  0.19600000  0.75121000  1
  O  O99  1  0.85019000  0.09784000  0.93271000  1
  O  O100  1  0.87029000  0.60432000  0.39804000  1
  O  O101  1  0.88076000  0.00670000  0.11479000  1
  O  O102  1  0.90442000  0.84834000  0.95953000  1
  O  O103  1  0.92025000  0.84733000  0.19720000  1
  O  O104  1  0.94186000  0.19648000  0.63101000  1
  O  O105  1  0.97524000  0.68369000  0.02450000  1
  O  O106  1  0.99325000  0.63021000  0.21916000  1
  O  O107  1  0.99690000  0.46210000  0.13741000  1
