# generated using pymatgen
data_FeH4C8O5
_symmetry_space_group_name_H-M   'P 1'
_cell_length_a   6.89650000
_cell_length_b   21.46431565
_cell_length_c   21.46431565
_cell_angle_alpha   95.28484112
_cell_angle_beta   90.00000000
_cell_angle_gamma   90.00000000
_symmetry_Int_Tables_number   1
_chemical_formula_structural   FeH4C8O5
_chemical_formula_sum   'Fe8 H32 C64 O40'
_cell_volume   3163.82720843
_cell_formula_units_Z   8
loop_
 _symmetry_equiv_pos_site_id
 _symmetry_equiv_pos_as_xyz
  1  'x, y, z'
loop_
 _atom_site_type_symbol
 _atom_site_label
 _atom_site_symmetry_multiplicity
 _atom_site_fract_x
 _atom_site_fract_y
 _atom_site_fract_z
 _atom_site_occupancy
  C  C0  1  0.73310000  0.11910000  0.00490000  1
  C  C1  1  0.23310000  0.49510000  0.38090000  1
  C  C2  1  0.76690000  0.61910000  0.50490000  1
  C  C3  1  0.26690000  0.99510000  0.88090000  1
  C  C4  1  0.73260000  0.18760000  0.00520000  1
  C  C5  1  0.23260000  0.49480000  0.31240000  1
  C  C6  1  0.76740000  0.68760000  0.50520000  1
  C  C7  1  0.26740000  0.99480000  0.81240000  1
  C  C8  1  0.90450000  0.21960000  0.00560000  1
  C  C9  1  0.40450000  0.49440000  0.28040000  1
  C  C10  1  0.59550000  0.71960000  0.50560000  1
  C  C11  1  0.09550000  0.99440000  0.78040000  1
  C  C12  1  0.56020000  0.21930000  0.00510000  1
  C  C13  1  0.06020000  0.49490000  0.28070000  1
  C  C14  1  0.93980000  0.71930000  0.50510000  1
  C  C15  1  0.43980000  0.99490000  0.78070000  1
  C  C16  1  0.55960000  0.28320000  0.00540000  1
  C  C17  1  0.90400000  0.28360000  0.00580000  1
  C  C18  1  0.40400000  0.49420000  0.21640000  1
  C  C19  1  0.05960000  0.49460000  0.21680000  1
  C  C20  1  0.94040000  0.78320000  0.50540000  1
  C  C21  1  0.59600000  0.78360000  0.50580000  1
  C  C22  1  0.09600000  0.99420000  0.71640000  1
  C  C23  1  0.44040000  0.99460000  0.71680000  1
  C  C24  1  0.73160000  0.31530000  0.00570000  1
  C  C25  1  0.23160000  0.49430000  0.18470000  1
  C  C26  1  0.76840000  0.81530000  0.50570000  1
  C  C27  1  0.26840000  0.99430000  0.68470000  1
  C  C28  1  0.73100000  0.38380000  0.00600000  1
  C  C29  1  0.23100000  0.49400000  0.11620000  1
  C  C30  1  0.76900000  0.88380000  0.50600000  1
  C  C31  1  0.26900000  0.99400000  0.61620000  1
  C  C32  1  0.76900000  0.50600000  0.88380000  1
  C  C33  1  0.26900000  0.61620000  0.99400000  1
  C  C34  1  0.73100000  0.00600000  0.38380000  1
  C  C35  1  0.23100000  0.11620000  0.49400000  1
  C  C36  1  0.76840000  0.50570000  0.81530000  1
  C  C37  1  0.26840000  0.68470000  0.99430000  1
  C  C38  1  0.73160000  0.00570000  0.31530000  1
  C  C39  1  0.23160000  0.18470000  0.49430000  1
  C  C40  1  0.94040000  0.50540000  0.78320000  1
  C  C41  1  0.59600000  0.50580000  0.78360000  1
  C  C42  1  0.09600000  0.71640000  0.99420000  1
  C  C43  1  0.44040000  0.71680000  0.99460000  1
  C  C44  1  0.55960000  0.00540000  0.28320000  1
  C  C45  1  0.90400000  0.00580000  0.28360000  1
  C  C46  1  0.40400000  0.21640000  0.49420000  1
  C  C47  1  0.05960000  0.21680000  0.49460000  1
  C  C48  1  0.93980000  0.50510000  0.71930000  1
  C  C49  1  0.43980000  0.78070000  0.99490000  1
  C  C50  1  0.56020000  0.00510000  0.21930000  1
  C  C51  1  0.06020000  0.28070000  0.49490000  1
  C  C52  1  0.59550000  0.50560000  0.71960000  1
  C  C53  1  0.09550000  0.78040000  0.99440000  1
  C  C54  1  0.90450000  0.00560000  0.21960000  1
  C  C55  1  0.40450000  0.28040000  0.49440000  1
  C  C56  1  0.76740000  0.50520000  0.68760000  1
  C  C57  1  0.26740000  0.81240000  0.99480000  1
  C  C58  1  0.73260000  0.00520000  0.18760000  1
  C  C59  1  0.23260000  0.31240000  0.49480000  1
  C  C60  1  0.76690000  0.50490000  0.61910000  1
  C  C61  1  0.26690000  0.88090000  0.99510000  1
  C  C62  1  0.73310000  0.00490000  0.11910000  1
  C  C63  1  0.23310000  0.38090000  0.49510000  1
  Fe  Fe64  1  0.00000000  0.00000000  0.00000000  1
  Fe  Fe65  1  0.50000000  0.00000000  0.00000000  1
  Fe  Fe66  1  0.00000000  0.50000000  0.50000000  1
  Fe  Fe67  1  0.50000000  0.50000000  0.50000000  1
  Fe  Fe68  1  0.00000000  0.50000000  1.00000000  1
  Fe  Fe69  1  0.50000000  0.50000000  1.00000000  1
  Fe  Fe70  1  1.00000000  0.00000000  0.50000000  1
  Fe  Fe71  1  0.50000000  0.00000000  0.50000000  1
  H  H72  1  0.43730000  0.19630000  0.00490000  1
  H  H73  1  0.02780000  0.19700000  0.00560000  1
  H  H74  1  0.52780000  0.49440000  0.30300000  1
  H  H75  1  0.93730000  0.49510000  0.30370000  1
  H  H76  1  0.06270000  0.69630000  0.50490000  1
  H  H77  1  0.47220000  0.69700000  0.50560000  1
  H  H78  1  0.97220000  0.99440000  0.80300000  1
  H  H79  1  0.56270000  0.99510000  0.80370000  1
  H  H80  1  0.02690000  0.30650000  0.00610000  1
  H  H81  1  0.52690000  0.49390000  0.19350000  1
  H  H82  1  0.47310000  0.80650000  0.50610000  1
  H  H83  1  0.97310000  0.99390000  0.69350000  1
  H  H84  1  0.43640000  0.30590000  0.00530000  1
  H  H85  1  0.93640000  0.49470000  0.19410000  1
  H  H86  1  0.06360000  0.80590000  0.50530000  1
  H  H87  1  0.56360000  0.99470000  0.69410000  1
  H  H88  1  0.06360000  0.50530000  0.80590000  1
  H  H89  1  0.56360000  0.69410000  0.99470000  1
  H  H90  1  0.43640000  0.00530000  0.30590000  1
  H  H91  1  0.93640000  0.19410000  0.49470000  1
  H  H92  1  0.47310000  0.50610000  0.80650000  1
  H  H93  1  0.97310000  0.69350000  0.99390000  1
  H  H94  1  0.02690000  0.00610000  0.30650000  1
  H  H95  1  0.52690000  0.19350000  0.49390000  1
  H  H96  1  0.06270000  0.50490000  0.69630000  1
  H  H97  1  0.47220000  0.50560000  0.69700000  1
  H  H98  1  0.97220000  0.80300000  0.99440000  1
  H  H99  1  0.56270000  0.80370000  0.99510000  1
  H  H100  1  0.43730000  0.00490000  0.19630000  1
  H  H101  1  0.02780000  0.00560000  0.19700000  1
  H  H102  1  0.52780000  0.30300000  0.49440000  1
  H  H103  1  0.93730000  0.30370000  0.49510000  1
  O  O104  1  0.25000000  0.03630000  0.03630000  1
  O  O105  1  0.75000000  0.46370000  0.46370000  1
  O  O106  1  0.25000000  0.53630000  0.53630000  1
  O  O107  1  0.75000000  0.96370000  0.96370000  1
  O  O108  1  0.57400000  0.08950000  0.00670000  1
  O  O109  1  0.07400000  0.49330000  0.41050000  1
  O  O110  1  0.92600000  0.58950000  0.50670000  1
  O  O111  1  0.42600000  0.99330000  0.91050000  1
  O  O112  1  0.89270000  0.08940000  0.00300000  1
  O  O113  1  0.39270000  0.49700000  0.41060000  1
  O  O114  1  0.60730000  0.58940000  0.50300000  1
  O  O115  1  0.10730000  0.99700000  0.91060000  1
  O  O116  1  0.89000000  0.41380000  0.00900000  1
  O  O117  1  0.39000000  0.49100000  0.08620000  1
  O  O118  1  0.61000000  0.91380000  0.50900000  1
  O  O119  1  0.11000000  0.99100000  0.58620000  1
  O  O120  1  0.57160000  0.41310000  0.00330000  1
  O  O121  1  0.07160000  0.49670000  0.08690000  1
  O  O122  1  0.92840000  0.91310000  0.50330000  1
  O  O123  1  0.42840000  0.99670000  0.58690000  1
  O  O124  1  0.25000000  0.47090000  0.97090000  1
  O  O125  1  0.75000000  0.52910000  0.02910000  1
  O  O126  1  0.25000000  0.97090000  0.47090000  1
  O  O127  1  0.75000000  0.02910000  0.52910000  1
  O  O128  1  0.92840000  0.50330000  0.91310000  1
  O  O129  1  0.42840000  0.58690000  0.99670000  1
  O  O130  1  0.57160000  0.00330000  0.41310000  1
  O  O131  1  0.07160000  0.08690000  0.49670000  1
  O  O132  1  0.61000000  0.50900000  0.91380000  1
  O  O133  1  0.11000000  0.58620000  0.99100000  1
  O  O134  1  0.89000000  0.00900000  0.41380000  1
  O  O135  1  0.39000000  0.08620000  0.49100000  1
  O  O136  1  0.60730000  0.50300000  0.58940000  1
  O  O137  1  0.10730000  0.91060000  0.99700000  1
  O  O138  1  0.89270000  0.00300000  0.08940000  1
  O  O139  1  0.39270000  0.41060000  0.49700000  1
  O  O140  1  0.92600000  0.50670000  0.58950000  1
  O  O141  1  0.42600000  0.91050000  0.99330000  1
  O  O142  1  0.57400000  0.00670000  0.08950000  1
  O  O143  1  0.07400000  0.41050000  0.49330000  1
