# generated using pymatgen
data_CuH6C6(NO)2
_symmetry_space_group_name_H-M   'P 1'
_cell_length_a   14.05719580
_cell_length_b   14.05710000
_cell_length_c   14.05710000
_cell_angle_alpha   108.35300000
_cell_angle_beta   110.03327326
_cell_angle_gamma   110.03327326
_symmetry_Int_Tables_number   1
_chemical_formula_structural   CuH6C6(NO)2
_chemical_formula_sum   'Cu4 H24 C24 N8 O8'
_cell_volume   2137.68530936
_cell_formula_units_Z   4
loop_
 _symmetry_equiv_pos_site_id
 _symmetry_equiv_pos_as_xyz
  1  'x, y, z'
loop_
 _atom_site_type_symbol
 _atom_site_label
 _atom_site_symmetry_multiplicity
 _atom_site_fract_x
 _atom_site_fract_y
 _atom_site_fract_z
 _atom_site_occupancy
  Cu  Cu0  1  0.10143000  0.19973000  0.30116000  1
  Cu  Cu1  1  0.39857000  0.84830000  0.44973000  1
  Cu  Cu2  1  0.60143000  0.05116000  0.44973000  1
  Cu  Cu3  1  0.89857000  0.19973000  0.09830000  1
  H  H4  1  0.03450000  0.21100000  0.53530000  1
  H  H5  1  0.03730000  0.10770000  0.45060000  1
  H  H6  1  0.06390000  0.54520000  0.14470000  1
  H  H7  1  0.09950000  0.89470000  0.33080000  1
  H  H8  1  0.15710000  0.82040000  0.35770000  1
  H  H9  1  0.17570000  0.92650000  0.46100000  1
  H  H10  1  0.32430000  0.50080000  0.53530000  1
  H  H11  1  0.34290000  0.41330000  0.45060000  1
  H  H12  1  0.40050000  0.54520000  0.48130000  1
  H  H13  1  0.43610000  0.23130000  0.33080000  1
  H  H14  1  0.46270000  0.82040000  0.66330000  1
  H  H15  1  0.46550000  0.92650000  0.75080000  1
  H  H16  1  0.53450000  0.28530000  0.46100000  1
  H  H17  1  0.53730000  0.20060000  0.35770000  1
  H  H18  1  0.56390000  0.89470000  0.79520000  1
  H  H19  1  0.59950000  0.08080000  0.14470000  1
  H  H20  1  0.65710000  0.10770000  0.07040000  1
  H  H21  1  0.67570000  0.21100000  0.17650000  1
  H  H22  1  0.82430000  0.28530000  0.75080000  1
  H  H23  1  0.84290000  0.20060000  0.66330000  1
  H  H24  1  0.90050000  0.23130000  0.79520000  1
  H  H25  1  0.93610000  0.08080000  0.48130000  1
  H  H26  1  0.96270000  0.41330000  0.07040000  1
  H  H27  1  0.96550000  0.50080000  0.17650000  1
  C  C28  1  0.01320000  0.48030000  0.14770000  1
  C  C29  1  0.08650000  0.45200000  0.22710000  1
  C  C30  1  0.16740000  0.89770000  0.38450000  1
  C  C31  1  0.20080000  0.52380000  0.32300000  1
  C  C32  1  0.22480000  0.12060000  0.34540000  1
  C  C33  1  0.22490000  0.45200000  0.36550000  1
  C  C34  1  0.27510000  0.97710000  0.39060000  1
  C  C35  1  0.27520000  0.64580000  0.37060000  1
  C  C36  1  0.29920000  0.07300000  0.37220000  1
  C  C37  1  0.33260000  0.48030000  0.46710000  1
  C  C38  1  0.41350000  0.11550000  0.39060000  1
  C  C39  1  0.48680000  0.21710000  0.38450000  1
  C  C40  1  0.51320000  0.89770000  0.73030000  1
  C  C41  1  0.58650000  0.97710000  0.70200000  1
  C  C42  1  0.66740000  0.13450000  0.14770000  1
  C  C43  1  0.70080000  0.07300000  0.77380000  1
  C  C44  1  0.72480000  0.09540000  0.37060000  1
  C  C45  1  0.72490000  0.11550000  0.70200000  1
  C  C46  1  0.77510000  0.14060000  0.22710000  1
  C  C47  1  0.77520000  0.12060000  0.89580000  1
  C  C48  1  0.79920000  0.12220000  0.32300000  1
  C  C49  1  0.83260000  0.21710000  0.73030000  1
  C  C50  1  0.91350000  0.14060000  0.36550000  1
  C  C51  1  0.98680000  0.13450000  0.46710000  1
  N  N52  1  0.04800000  0.34580000  0.21400000  1
  N  N53  1  0.13180000  0.34580000  0.29780000  1
  N  N54  1  0.36820000  0.96400000  0.41600000  1
  N  N55  1  0.45200000  0.04780000  0.41600000  1
  N  N56  1  0.54800000  0.96400000  0.59580000  1
  N  N57  1  0.63180000  0.04780000  0.59580000  1
  N  N58  1  0.86820000  0.16600000  0.21400000  1
  N  N59  1  0.95200000  0.16600000  0.29780000  1
  O  O60  1  0.12300000  0.07650000  0.33330000  1
  O  O61  1  0.24320000  0.70350000  0.32650000  1
  O  O62  1  0.25680000  0.21030000  0.33330000  1
  O  O63  1  0.37700000  0.70350000  0.46030000  1
  O  O64  1  0.62300000  0.08330000  0.32650000  1
  O  O65  1  0.74320000  0.07653333  0.95350000  1
  O  O66  1  0.75680000  0.08330000  0.46030000  1
  O  O67  1  0.87700000  0.21033333  0.95350000  1
