# generated using pymatgen
data_AgH8(CN)2
_symmetry_space_group_name_H-M   'P 1'
_cell_length_a   6.08900000
_cell_length_b   13.80258769
_cell_length_c   13.80258769
_cell_angle_alpha   90.95616036
_cell_angle_beta   97.49877286
_cell_angle_gamma   97.49877286
_symmetry_Int_Tables_number   1
_chemical_formula_structural   AgH8(CN)2
_chemical_formula_sum   'Ag8 H64 C16 N16'
_cell_volume   1139.59600052
_cell_formula_units_Z   8
loop_
 _symmetry_equiv_pos_site_id
 _symmetry_equiv_pos_as_xyz
  1  'x, y, z'
loop_
 _atom_site_type_symbol
 _atom_site_label
 _atom_site_symmetry_multiplicity
 _atom_site_fract_x
 _atom_site_fract_y
 _atom_site_fract_z
 _atom_site_occupancy
  Ag  Ag0  1  0.00000000  0.00000000  0.00000000  1
  Ag  Ag1  1  0.50000000  0.00000000  0.00000000  1
  Ag  Ag2  1  0.00000000  0.50000000  0.50000000  1
  Ag  Ag3  1  0.50000000  0.50000000  0.50000000  1
  Ag  Ag4  1  0.50000000  0.00000000  0.50000000  1
  Ag  Ag5  1  0.00000000  0.00000000  0.50000000  1
  Ag  Ag6  1  0.50000000  0.50000000  1.00000000  1
  Ag  Ag7  1  0.00000000  0.50000000  1.00000000  1
  C  C8  1  0.76660000  0.02460000  0.80600000  1
  C  C9  1  0.26660000  0.80600000  0.02460000  1
  C  C10  1  0.27660000  0.29860000  0.50500000  1
  C  C11  1  0.77660000  0.50500000  0.29860000  1
  C  C12  1  0.73040000  0.98870000  0.70070000  1
  C  C13  1  0.23040000  0.70070000  0.98870000  1
  C  C14  1  0.19780000  0.19200000  0.48080000  1
  C  C15  1  0.69780000  0.48080000  0.19200000  1
  C  C16  1  0.80220000  0.80800000  0.51920000  1
  C  C17  1  0.30220000  0.51920000  0.80800000  1
  C  C18  1  0.26960000  0.01130000  0.29930000  1
  C  C19  1  0.76960000  0.29930000  0.01130000  1
  C  C20  1  0.72340000  0.70140000  0.49500000  1
  C  C21  1  0.22340000  0.49500000  0.70140000  1
  C  C22  1  0.23340000  0.97540000  0.19400000  1
  C  C23  1  0.73340000  0.19400000  0.97540000  1
  H  H24  1  0.81840000  0.09440000  0.81160000  1
  H  H25  1  0.31840000  0.81160000  0.09440000  1
  H  H26  1  0.36070000  0.30570000  0.57010000  1
  H  H27  1  0.86070000  0.57010000  0.30570000  1
  H  H28  1  0.63070000  0.01140000  0.83560000  1
  H  H29  1  0.13070000  0.83560000  0.01140000  1
  H  H30  1  0.14890000  0.33370000  0.50490000  1
  H  H31  1  0.64890000  0.50490000  0.33370000  1
  H  H32  1  0.06890000  0.98340000  0.82620000  1
  H  H33  1  0.56890000  0.82620000  0.98340000  1
  H  H34  1  0.63560000  0.11480000  0.66220000  1
  H  H35  1  0.13560000  0.66220000  0.11480000  1
  H  H36  1  0.12160000  0.15350000  0.61310000  1
  H  H37  1  0.62160000  0.61310000  0.15350000  1
  H  H38  1  0.54140000  0.31220000  0.43520000  1
  H  H39  1  0.04140000  0.43520000  0.31220000  1
  H  H40  1  0.89670000  0.90370000  0.84190000  1
  H  H41  1  0.39670000  0.84190000  0.90370000  1
  H  H42  1  0.44870000  0.04530000  0.68570000  1
  H  H43  1  0.94870000  0.68570000  0.04530000  1
  H  H44  1  0.92260000  0.17260000  0.54760000  1
  H  H45  1  0.42260000  0.54760000  0.17260000  1
  H  H46  1  0.34320000  0.33920000  0.37440000  1
  H  H47  1  0.84320000  0.37440000  0.33920000  1
  H  H48  1  0.86870000  0.99740000  0.67200000  1
  H  H49  1  0.36870000  0.67200000  0.99740000  1
  H  H50  1  0.32590000  0.15710000  0.48110000  1
  H  H51  1  0.82590000  0.48110000  0.15710000  1
  H  H52  1  0.66650000  0.92050000  0.69410000  1
  H  H53  1  0.16650000  0.69410000  0.92050000  1
  H  H54  1  0.11510000  0.18510000  0.41550000  1
  H  H55  1  0.61510000  0.41550000  0.18510000  1
  H  H56  1  0.88490000  0.81490000  0.58450000  1
  H  H57  1  0.38490000  0.58450000  0.81490000  1
  H  H58  1  0.33350000  0.07950000  0.30590000  1
  H  H59  1  0.83350000  0.30590000  0.07950000  1
  H  H60  1  0.67410000  0.84290000  0.51890000  1
  H  H61  1  0.17410000  0.51890000  0.84290000  1
  H  H62  1  0.13130000  0.00260000  0.32800000  1
  H  H63  1  0.63130000  0.32800000  0.00260000  1
  H  H64  1  0.65680000  0.66080000  0.62560000  1
  H  H65  1  0.15680000  0.62560000  0.66080000  1
  H  H66  1  0.07740000  0.82740000  0.45240000  1
  H  H67  1  0.57740000  0.45240000  0.82740000  1
  H  H68  1  0.55130000  0.95470000  0.31430000  1
  H  H69  1  0.05130000  0.31430000  0.95470000  1
  H  H70  1  0.10330000  0.09630000  0.15810000  1
  H  H71  1  0.60330000  0.15810000  0.09630000  1
  H  H72  1  0.45860000  0.68780000  0.56480000  1
  H  H73  1  0.95860000  0.56480000  0.68780000  1
  H  H74  1  0.87840000  0.84650000  0.38690000  1
  H  H75  1  0.37840000  0.38690000  0.84650000  1
  H  H76  1  0.36440000  0.88520000  0.33780000  1
  H  H77  1  0.86440000  0.33780000  0.88520000  1
  H  H78  1  0.93110000  0.01660000  0.17380000  1
  H  H79  1  0.43110000  0.17380000  0.01660000  1
  H  H80  1  0.85110000  0.66630000  0.49510000  1
  H  H81  1  0.35110000  0.49510000  0.66630000  1
  H  H82  1  0.36930000  0.98860000  0.16440000  1
  H  H83  1  0.86930000  0.16440000  0.98860000  1
  H  H84  1  0.63930000  0.69430000  0.42990000  1
  H  H85  1  0.13930000  0.42990000  0.69430000  1
  H  H86  1  0.18160000  0.90560000  0.18840000  1
  H  H87  1  0.68160000  0.18840000  0.90560000  1
  N  N88  1  0.94180000  0.96820000  0.85260000  1
  N  N89  1  0.44180000  0.85260000  0.96820000  1
  N  N90  1  0.41780000  0.34140000  0.43540000  1
  N  N91  1  0.91780000  0.43540000  0.34140000  1
  N  N92  1  0.57360000  0.05170000  0.65690000  1
  N  N93  1  0.07360000  0.65690000  0.05170000  1
  N  N94  1  0.05220000  0.14700000  0.55120000  1
  N  N95  1  0.55220000  0.55120000  0.14700000  1
  N  N96  1  0.94780000  0.85300000  0.44880000  1
  N  N97  1  0.44780000  0.44880000  0.85300000  1
  N  N98  1  0.42640000  0.94830000  0.34310000  1
  N  N99  1  0.92640000  0.34310000  0.94830000  1
  N  N100  1  0.58220000  0.65860000  0.56460000  1
  N  N101  1  0.08220000  0.56460000  0.65860000  1
  N  N102  1  0.05820000  0.03180000  0.14740000  1
  N  N103  1  0.55820000  0.14740000  0.03180000  1
