# generated using pymatgen
data_Cu3P2H10C14(NO5)2
_symmetry_space_group_name_H-M   'P 1'
_cell_length_a   8.55300000
_cell_length_b   9.11400000
_cell_length_c   10.39900000
_cell_angle_alpha   105.16000000
_cell_angle_beta   97.83000000
_cell_angle_gamma   114.41000000
_symmetry_Int_Tables_number   1
_chemical_formula_structural   Cu3P2H10C14(NO5)2
_chemical_formula_sum   'Cu3 P2 H10 C14 N2 O10'
_cell_volume   684.39667624
_cell_formula_units_Z   1
loop_
 _symmetry_equiv_pos_site_id
 _symmetry_equiv_pos_as_xyz
  1  'x, y, z'
loop_
 _atom_site_type_symbol
 _atom_site_label
 _atom_site_symmetry_multiplicity
 _atom_site_fract_x
 _atom_site_fract_y
 _atom_site_fract_z
 _atom_site_occupancy
  Cu  Cu0  1  0.17175000  0.04210000  0.70270000  1
  Cu  Cu1  1  0.50000000  0.50000000  0.50000000  1
  Cu  Cu2  1  0.82825000  0.95790000  0.29730000  1
  P  P3  1  0.23604000  0.09973000  0.42397000  1
  P  P4  1  0.76396000  0.90027000  0.57603000  1
  H  H5  1  0.15830000  0.03390000  0.13040000  1
  H  H6  1  0.41140000  0.76850000  0.98850000  1
  H  H7  1  0.43250000  0.91260000  0.39050000  1
  H  H8  1  0.44500000  0.32000000  0.85500000  1
  H  H9  1  0.46000000  0.28300000  0.71400000  1
  H  H10  1  0.54000000  0.71700000  0.28600000  1
  H  H11  1  0.55500000  0.68000000  0.14500000  1
  H  H12  1  0.56750000  0.08740000  0.60950000  1
  H  H13  1  0.58860000  0.23150000  0.01150000  1
  H  H14  1  0.84170000  0.96610000  0.86960000  1
  C  C15  1  0.22190000  0.90360000  0.89520000  1
  C  C16  1  0.22950000  0.98270000  0.14660000  1
  C  C17  1  0.27580000  0.90280000  0.03800000  1
  C  C18  1  0.28740000  0.98810000  0.27990000  1
  C  C19  1  0.38210000  0.82540000  0.06180000  1
  C  C20  1  0.39400000  0.91150000  0.30200000  1
  C  C21  1  0.44340000  0.83350000  0.19380000  1
  C  C22  1  0.55660000  0.16650000  0.80620000  1
  C  C23  1  0.60600000  0.08850000  0.69800000  1
  C  C24  1  0.61790000  0.17460000  0.93820000  1
  C  C25  1  0.71260000  0.01190000  0.72010000  1
  C  C26  1  0.72420000  0.09720000  0.96200000  1
  C  C27  1  0.77050000  0.01730000  0.85340000  1
  C  C28  1  0.77810000  0.09640000  0.10480000  1
  N  N29  1  0.43280000  0.23150000  0.77700000  1
  N  N30  1  0.56720000  0.76850000  0.22300000  1
  O  O31  1  0.08050000  0.12640000  0.36490000  1
  O  O32  1  0.18620000  0.02470000  0.88740000  1
  O  O33  1  0.19320000  0.98870000  0.51390000  1
  O  O34  1  0.21730000  0.79390000  0.79370000  1
  O  O35  1  0.40100000  0.27050000  0.50450000  1
  O  O36  1  0.59900000  0.72950000  0.49550000  1
  O  O37  1  0.78270000  0.20610000  0.20630000  1
  O  O38  1  0.80680000  0.01130000  0.48610000  1
  O  O39  1  0.81380000  0.97530000  0.11260000  1
  O  O40  1  0.91950000  0.87360000  0.63510000  1
