# generated using pymatgen
data_DyH2(CO)7
_symmetry_space_group_name_H-M   'P 1'
_cell_length_a   9.88460000
_cell_length_b   9.88460000
_cell_length_c   13.35260000
_cell_angle_alpha   94.67540000
_cell_angle_beta   109.82190000
_cell_angle_gamma   115.58300000
_symmetry_Int_Tables_number   1
_chemical_formula_structural   DyH2(CO)7
_chemical_formula_sum   'Dy4 H8 C28 O28'
_cell_volume   1066.30723772
_cell_formula_units_Z   4
loop_
 _symmetry_equiv_pos_site_id
 _symmetry_equiv_pos_as_xyz
  1  'x, y, z'
loop_
 _atom_site_type_symbol
 _atom_site_label
 _atom_site_symmetry_multiplicity
 _atom_site_fract_x
 _atom_site_fract_y
 _atom_site_fract_z
 _atom_site_occupancy
  Dy  Dy0  1  0.95854000  0.73204000  0.49738000  1
  Dy  Dy1  1  0.73466000  0.46116000  0.00262000  1
  Dy  Dy2  1  0.26534000  0.53884000  0.99738000  1
  Dy  Dy3  1  0.04146000  0.26796000  0.50262000  1
  H  H4  1  0.99030000  0.05280000  0.85270000  1
  H  H5  1  0.82030000  0.76200000  0.81970000  1
  H  H6  1  0.70010000  0.13760000  0.64730000  1
  H  H7  1  0.55770000  0.99940000  0.31970000  1
  H  H8  1  0.44230000  0.00060000  0.68030000  1
  H  H9  1  0.29990000  0.86240000  0.35270000  1
  H  H10  1  0.17970000  0.23800000  0.18030000  1
  H  H11  1  0.00970000  0.94720000  0.14730000  1
  C  C12  1  0.93410000  0.58980000  0.26470000  1
  C  C13  1  0.90040000  0.00170000  0.86970000  1
  C  C14  1  0.88120000  0.23100000  0.96120000  1
  C  C15  1  0.83410000  0.06810000  0.91700000  1
  C  C16  1  0.82510000  0.66940000  0.23530000  1
  C  C17  1  0.80550000  0.83900000  0.85150000  1
  C  C18  1  0.76980000  0.92000000  0.53880000  1
  C  C19  1  0.72440000  0.34140000  0.40180000  1
  C  C20  1  0.68800000  0.81730000  0.88990000  1
  C  C21  1  0.65110000  0.91710000  0.58300000  1
  C  C22  1  0.63200000  0.03070000  0.63030000  1
  C  C23  1  0.57260000  0.20190000  0.38990000  1
  C  C24  1  0.56040000  0.67740000  0.90180000  1
  C  C25  1  0.51250000  0.04600000  0.35150000  1
  C  C26  1  0.48750000  0.95400000  0.64850000  1
  C  C27  1  0.43960000  0.32260000  0.09820000  1
  C  C28  1  0.42740000  0.79810000  0.61010000  1
  C  C29  1  0.36800000  0.96930000  0.36970000  1
  C  C30  1  0.34890000  0.08290000  0.41700000  1
  C  C31  1  0.31200000  0.18270000  0.11010000  1
  C  C32  1  0.27560000  0.65860000  0.59820000  1
  C  C33  1  0.23020000  0.08000000  0.46120000  1
  C  C34  1  0.19450000  0.16100000  0.14850000  1
  C  C35  1  0.17490000  0.33060000  0.76470000  1
  C  C36  1  0.16590000  0.93190000  0.08300000  1
  C  C37  1  0.11880000  0.76900000  0.03880000  1
  C  C38  1  0.09960000  0.99830000  0.13030000  1
  C  C39  1  0.06590000  0.41020000  0.73530000  1
  O  O40  1  0.98830000  0.66530000  0.03860000  1
  O  O41  1  0.97330000  0.37570000  0.63580000  1
  O  O42  1  0.92340000  0.50090000  0.18730000  1
  O  O43  1  0.87330000  0.05030000  0.53860000  1
  O  O44  1  0.84080000  0.31950000  0.40150000  1
  O  O45  1  0.81360000  0.73610000  0.31270000  1
  O  O46  1  0.78720000  0.25450000  0.99570000  1
  O  O47  1  0.76010000  0.66250000  0.13580000  1
  O  O48  1  0.75880000  0.79150000  0.50430000  1
  O  O49  1  0.72870000  0.47060000  0.41210000  1
  O  O50  1  0.70110000  0.95600000  0.92810000  1
  O  O51  1  0.58200000  0.56070000  0.90150000  1
  O  O52  1  0.55850000  0.31660000  0.08790000  1
  O  O53  1  0.52790000  0.77300000  0.57190000  1
  O  O54  1  0.47210000  0.22700000  0.42810000  1
  O  O55  1  0.44150000  0.68340000  0.91210000  1
  O  O56  1  0.41800000  0.43930000  0.09850000  1
  O  O57  1  0.29890000  0.04400000  0.07190000  1
  O  O58  1  0.27130000  0.52940000  0.58790000  1
  O  O59  1  0.24120000  0.20850000  0.49570000  1
  O  O60  1  0.23990000  0.33750000  0.86420000  1
  O  O61  1  0.21280000  0.74550000  0.00430000  1
  O  O62  1  0.18640000  0.26390000  0.68730000  1
  O  O63  1  0.15920000  0.68050000  0.59850000  1
  O  O64  1  0.12670000  0.94970000  0.46140000  1
  O  O65  1  0.07660000  0.49910000  0.81270000  1
  O  O66  1  0.02670000  0.62430000  0.36420000  1
  O  O67  1  0.01170000  0.33470000  0.96140000  1
