# generated using pymatgen
data_LaP2H4C2O7
_symmetry_space_group_name_H-M   'P 1'
_cell_length_a   8.71150000
_cell_length_b   10.43160000
_cell_length_c   10.88380000
_cell_angle_alpha   90.00000000
_cell_angle_beta   90.00000000
_cell_angle_gamma   90.00000000
_symmetry_Int_Tables_number   1
_chemical_formula_structural   LaP2H4C2O7
_chemical_formula_sum   'La4 P8 H16 C8 O28'
_cell_volume   989.06405595
_cell_formula_units_Z   4
loop_
 _symmetry_equiv_pos_site_id
 _symmetry_equiv_pos_as_xyz
  1  'x, y, z'
loop_
 _atom_site_type_symbol
 _atom_site_label
 _atom_site_symmetry_multiplicity
 _atom_site_fract_x
 _atom_site_fract_y
 _atom_site_fract_z
 _atom_site_occupancy
  La  La0  1  0.00787000  0.60152000  0.38736000  1
  La  La1  1  0.49213000  0.39848000  0.88736000  1
  La  La2  1  0.50787000  0.89848000  0.61264000  1
  La  La3  1  0.99213000  0.10152000  0.11264000  1
  P  P4  1  0.15560000  0.41670000  0.10580000  1
  P  P5  1  0.19440000  0.91870000  0.36069000  1
  P  P6  1  0.30560000  0.08130000  0.86069000  1
  P  P7  1  0.34440000  0.58330000  0.60580000  1
  P  P8  1  0.65560000  0.08330000  0.89420000  1
  P  P9  1  0.69440000  0.58130000  0.63931000  1
  P  P10  1  0.80560000  0.41870000  0.13931000  1
  P  P11  1  0.84440000  0.91670000  0.39420000  1
  H  H12  1  0.02890000  0.12000000  0.50390000  1
  H  H13  1  0.03230000  0.53870000  0.88530000  1
  H  H14  1  0.13480000  0.79690000  0.56610000  1
  H  H15  1  0.14460000  0.04800000  0.58990000  1
  H  H16  1  0.35540000  0.95200000  0.08990000  1
  H  H17  1  0.36520000  0.20310000  0.06610000  1
  H  H18  1  0.46770000  0.46130000  0.38530000  1
  H  H19  1  0.47110000  0.88000000  0.00390000  1
  H  H20  1  0.52890000  0.38000000  0.49610000  1
  H  H21  1  0.53230000  0.96130000  0.11470000  1
  H  H22  1  0.63480000  0.70310000  0.43390000  1
  H  H23  1  0.64460000  0.45200000  0.41010000  1
  H  H24  1  0.85540000  0.54800000  0.91010000  1
  H  H25  1  0.86520000  0.29690000  0.93390000  1
  H  H26  1  0.96770000  0.03870000  0.61470000  1
  H  H27  1  0.97110000  0.62000000  0.99610000  1
  C  C28  1  0.03600000  0.92800000  0.47060000  1
  C  C29  1  0.04520000  0.04420000  0.55210000  1
  C  C30  1  0.45480000  0.95580000  0.05210000  1
  C  C31  1  0.46400000  0.07200000  0.97060000  1
  C  C32  1  0.53600000  0.57200000  0.52940000  1
  C  C33  1  0.54520000  0.45580000  0.44790000  1
  C  C34  1  0.95480000  0.54420000  0.94790000  1
  C  C35  1  0.96400000  0.42800000  0.02940000  1
  O  O36  1  0.04570000  0.80870000  0.54470000  1
  O  O37  1  0.15280000  0.50440000  0.21730000  1
  O  O38  1  0.15720000  0.07000000  0.93450000  1
  O  O39  1  0.17210000  0.78660000  0.29970000  1
  O  O40  1  0.17580000  0.27590000  0.14040000  1
  O  O41  1  0.17950000  0.02880000  0.26950000  1
  O  O42  1  0.22360000  0.54090000  0.51410000  1
  O  O43  1  0.27640000  0.45910000  0.01410000  1
  O  O44  1  0.32050000  0.97120000  0.76950000  1
  O  O45  1  0.32420000  0.72410000  0.64040000  1
  O  O46  1  0.32790000  0.21340000  0.79970000  1
  O  O47  1  0.34280000  0.93000000  0.43450000  1
  O  O48  1  0.34720000  0.49560000  0.71730000  1
  O  O49  1  0.45430000  0.19130000  0.04470000  1
  O  O50  1  0.54570000  0.69130000  0.45530000  1
  O  O51  1  0.65280000  0.99560000  0.78270000  1
  O  O52  1  0.65720000  0.43000000  0.06550000  1
  O  O53  1  0.67210000  0.71340000  0.70030000  1
  O  O54  1  0.67580000  0.22410000  0.85960000  1
  O  O55  1  0.67950000  0.47120000  0.73050000  1
  O  O56  1  0.72360000  0.95910000  0.48590000  1
  O  O57  1  0.77640000  0.04090000  0.98590000  1
  O  O58  1  0.82050000  0.52880000  0.23050000  1
  O  O59  1  0.82420000  0.77590000  0.35960000  1
  O  O60  1  0.82790000  0.28660000  0.20030000  1
  O  O61  1  0.84280000  0.57000000  0.56550000  1
  O  O62  1  0.84720000  0.00440000  0.28270000  1
  O  O63  1  0.95430000  0.30870000  0.95530000  1
