# generated using pymatgen
data_VH4C8O5
_symmetry_space_group_name_H-M   'P 1'
_cell_length_a   12.05680000
_cell_length_b   12.30212792
_cell_length_c   12.30212792
_cell_angle_alpha   76.10587739
_cell_angle_beta   60.65750935
_cell_angle_gamma   60.65750935
_symmetry_Int_Tables_number   1
_chemical_formula_structural   VH4C8O5
_chemical_formula_sum   'V4 H16 C32 O20'
_cell_volume   1386.54098015
_cell_formula_units_Z   4
loop_
 _symmetry_equiv_pos_site_id
 _symmetry_equiv_pos_as_xyz
  1  'x, y, z'
loop_
 _atom_site_type_symbol
 _atom_site_label
 _atom_site_symmetry_multiplicity
 _atom_site_fract_x
 _atom_site_fract_y
 _atom_site_fract_z
 _atom_site_occupancy
  C  C0  1  0.79520000  0.00000000  0.00000000  1
  C  C1  1  0.56310000  0.00000000  0.00000000  1
  C  C2  1  0.43690000  0.00000000  0.00000000  1
  C  C3  1  0.20480000  0.00000000  0.00000000  1
  C  C4  1  0.95480000  0.50000000  0.50000000  1
  C  C5  1  0.54520000  0.50000000  0.50000000  1
  C  C6  1  0.31310000  0.50000000  0.50000000  1
  C  C7  1  0.18690000  0.50000000  0.50000000  1
  C  C8  1  0.17028000  0.39027000  0.52697000  1
  C  C9  1  0.05418000  0.39027000  0.52697000  1
  C  C10  1  0.77858000  0.02697000  0.89027000  1
  C  C11  1  0.66248000  0.02697000  0.89027000  1
  C  C12  1  0.55555000  0.39027000  0.47303000  1
  C  C13  1  0.43945000  0.39027000  0.47303000  1
  C  C14  1  0.44725000  0.97303000  0.89027000  1
  C  C15  1  0.33115000  0.97303000  0.89027000  1
  C  C16  1  0.04110000  0.27440000  0.54820000  1
  C  C17  1  0.88630000  0.04820000  0.77440000  1
  C  C18  1  0.68450000  0.27440000  0.45180000  1
  C  C19  1  0.33930000  0.95180000  0.77440000  1
  C  C20  1  0.06550000  0.04820000  0.22560000  1
  C  C21  1  0.41070000  0.72560000  0.54820000  1
  C  C22  1  0.70890000  0.95180000  0.22560000  1
  C  C23  1  0.86370000  0.72560000  0.45180000  1
  C  C24  1  0.31055000  0.02697000  0.10973000  1
  C  C25  1  0.19445000  0.02697000  0.10973000  1
  C  C26  1  0.41885000  0.60973000  0.52697000  1
  C  C27  1  0.30275000  0.60973000  0.52697000  1
  C  C28  1  0.69582000  0.97303000  0.10973000  1
  C  C29  1  0.57972000  0.97303000  0.10973000  1
  C  C30  1  0.08752000  0.60973000  0.47303000  1
  C  C31  1  0.97142000  0.60973000  0.47303000  1
  H  H32  1  0.88230000  0.00000000  0.00000000  1
  H  H33  1  0.11770000  0.00000000  0.00000000  1
  H  H34  1  0.86770000  0.50000000  0.50000000  1
  H  H35  1  0.63230000  0.50000000  0.50000000  1
  H  H36  1  0.24480000  0.30800000  0.54720000  1
  H  H37  1  0.65000000  0.04720000  0.80800000  1
  H  H38  1  0.44720000  0.30800000  0.45280000  1
  H  H39  1  0.54200000  0.95280000  0.80800000  1
  H  H40  1  0.55320000  0.07180000  0.57180000  1
  H  H41  1  0.37500000  0.07180000  0.42820000  1
  H  H42  1  0.87500000  0.92820000  0.57180000  1
  H  H43  1  0.19680000  0.92820000  0.42820000  1
  H  H44  1  0.30280000  0.04720000  0.19200000  1
  H  H45  1  0.20800000  0.69200000  0.54720000  1
  H  H46  1  0.50520000  0.95280000  0.19200000  1
  H  H47  1  0.10000000  0.69200000  0.45280000  1
  O  O48  1  0.09380000  0.19160000  0.61460000  1
  O  O49  1  0.85000000  0.11460000  0.69160000  1
  O  O50  1  0.76040000  0.26190000  0.50090000  1
  O  O51  1  0.22680000  0.00090000  0.76190000  1
  O  O52  1  0.97770000  0.26190000  0.49910000  1
  O  O53  1  0.01130000  0.99910000  0.76190000  1
  O  O54  1  0.71460000  0.19160000  0.38540000  1
  O  O55  1  0.45840000  0.88540000  0.69160000  1
  O  O56  1  0.62410000  0.00090000  0.50090000  1
  O  O57  1  0.37500000  0.00090000  0.49910000  1
  O  O58  1  0.87500000  0.99910000  0.50090000  1
  O  O59  1  0.12590000  0.99910000  0.49910000  1
  O  O60  1  0.03540000  0.11460000  0.30840000  1
  O  O61  1  0.29160000  0.80840000  0.61460000  1
  O  O62  1  0.77230000  0.00090000  0.23810000  1
  O  O63  1  0.73870000  0.73810000  0.50090000  1
  O  O64  1  0.98960000  0.99910000  0.23810000  1
  O  O65  1  0.52320000  0.73810000  0.49910000  1
  O  O66  1  0.65620000  0.88540000  0.30840000  1
  O  O67  1  0.90000000  0.80840000  0.38540000  1
  V  V68  1  0.94800000  0.10400000  0.50000000  1
  V  V69  1  0.19800000  0.00000000  0.60400000  1
  V  V70  1  0.80200000  0.00000000  0.39600000  1
  V  V71  1  0.55200000  0.89600000  0.50000000  1
