# generated using pymatgen
data_Cd3H16C12(N8Cl)2
_symmetry_space_group_name_H-M   'P 1'
_cell_length_a   7.87240000
_cell_length_b   9.28840000
_cell_length_c   9.46069525
_cell_angle_alpha   86.63915126
_cell_angle_beta   65.41406285
_cell_angle_gamma   81.89990000
_symmetry_Int_Tables_number   1
_chemical_formula_structural   Cd3H16C12(N8Cl)2
_chemical_formula_sum   'Cd3 H16 C12 N16 Cl2'
_cell_volume   622.79059031
_cell_formula_units_Z   1
loop_
 _symmetry_equiv_pos_site_id
 _symmetry_equiv_pos_as_xyz
  1  'x, y, z'
loop_
 _atom_site_type_symbol
 _atom_site_label
 _atom_site_symmetry_multiplicity
 _atom_site_fract_x
 _atom_site_fract_y
 _atom_site_fract_z
 _atom_site_occupancy
  Cd  Cd0  1  0.50000000  0.50000000  0.50000000  1
  Cd  Cd1  1  0.50000000  0.00000000  1.00000000  1
  Cd  Cd2  1  0.00000000  0.50000000  0.50000000  1
  H  H3  1  0.65720000  0.95690000  0.35740000  1
  H  H4  1  0.19600000  0.89740000  0.85940000  1
  H  H5  1  0.80800000  0.22300000  0.24880000  1
  H  H6  1  0.64440000  0.07890000  0.47000000  1
  H  H7  1  0.94320000  0.77700000  0.24880000  1
  H  H8  1  0.05540000  0.89740000  0.14060000  1
  H  H9  1  0.98540000  0.04310000  0.35740000  1
  H  H10  1  0.88560000  0.92110000  0.47000000  1
  H  H11  1  0.11440000  0.07890000  0.53000000  1
  H  H12  1  0.01460000  0.95690000  0.64260000  1
  H  H13  1  0.94460000  0.10260000  0.85940000  1
  H  H14  1  0.05680000  0.22300000  0.75120000  1
  H  H15  1  0.35560000  0.92110000  0.53000000  1
  H  H16  1  0.19200000  0.77700000  0.75120000  1
  H  H17  1  0.80400000  0.10260000  0.14060000  1
  H  H18  1  0.34280000  0.04310000  0.64260000  1
  C  C19  1  0.26230000  0.85210000  0.75800000  1
  C  C20  1  0.72150000  0.03370000  0.36980000  1
  C  C21  1  0.45600000  0.78660000  0.73720000  1
  C  C22  1  0.02030000  0.85210000  0.24200000  1
  C  C23  1  0.90870000  0.96630000  0.36980000  1
  C  C24  1  0.19320000  0.78660000  0.26280000  1
  C  C25  1  0.80680000  0.21340000  0.73720000  1
  C  C26  1  0.09130000  0.03370000  0.63020000  1
  C  C27  1  0.97970000  0.14790000  0.75800000  1
  C  C28  1  0.54400000  0.21340000  0.26280000  1
  C  C29  1  0.27850000  0.96630000  0.63020000  1
  C  C30  1  0.73770000  0.14790000  0.24200000  1
  N  N31  1  0.56200000  0.68040000  0.63600000  1
  N  N32  1  0.62270000  0.33630000  0.64680000  1
  N  N33  1  0.52530000  0.24520000  0.74840000  1
  N  N34  1  0.55430000  0.83370000  0.80700000  1
  N  N35  1  0.73050000  0.66370000  0.64680000  1
  N  N36  1  0.80200000  0.31960000  0.63600000  1
  N  N37  1  0.63870000  0.16630000  0.80700000  1
  N  N38  1  0.72630000  0.75480000  0.74840000  1
  N  N39  1  0.27370000  0.24520000  0.25160000  1
  N  N40  1  0.36130000  0.83370000  0.19300000  1
  N  N41  1  0.19800000  0.68040000  0.36400000  1
  N  N42  1  0.26950000  0.33630000  0.35320000  1
  N  N43  1  0.44570000  0.16630000  0.19300000  1
  N  N44  1  0.47470000  0.75480000  0.25160000  1
  N  N45  1  0.37730000  0.66370000  0.35320000  1
  N  N46  1  0.43800000  0.31960000  0.36400000  1
  Cl  Cl47  1  0.85097000  0.50000000  0.29806000  1
  Cl  Cl48  1  0.14903000  0.50000000  0.70194000  1
