# generated using pymatgen
data_CuH16C16(NO)4
_symmetry_space_group_name_H-M   'P 1'
_cell_length_a   10.18500000
_cell_length_b   13.89670000
_cell_length_c   22.79000000
_cell_angle_alpha   97.13450000
_cell_angle_beta   90.00000000
_cell_angle_gamma   111.49700000
_symmetry_Int_Tables_number   1
_chemical_formula_structural   CuH16C16(NO)4
_chemical_formula_sum   'Cu6 H96 C96 N24 O24'
_cell_volume   2974.40330048
_cell_formula_units_Z   6
loop_
 _symmetry_equiv_pos_site_id
 _symmetry_equiv_pos_as_xyz
  1  'x, y, z'
loop_
 _atom_site_type_symbol
 _atom_site_label
 _atom_site_symmetry_multiplicity
 _atom_site_fract_x
 _atom_site_fract_y
 _atom_site_fract_z
 _atom_site_occupancy
  Cu  Cu0  1  0.11154000  0.40820000  0.54121000  1
  Cu  Cu1  1  0.29666000  0.40820000  0.04121000  1
  Cu  Cu2  1  0.36958000  0.00000000  0.75000000  1
  Cu  Cu3  1  0.63042000  0.00000000  0.25000000  1
  Cu  Cu4  1  0.70334000  0.59180000  0.95879000  1
  Cu  Cu5  1  0.88846000  0.59180000  0.45879000  1
  H  H6  1  0.01660000  0.39520000  0.67030000  1
  H  H7  1  0.01920000  0.59560000  0.58310000  1
  H  H8  1  0.04260000  0.14480000  0.36140000  1
  H  H9  1  0.04500000  0.43720000  0.78160000  1
  H  H10  1  0.07870000  0.34980000  0.23800000  1
  H  H11  1  0.08500000  0.19480000  0.96800000  1
  H  H12  1  0.08770000  0.66440000  0.69140000  1
  H  H13  1  0.08950000  0.77620000  0.71420000  1
  H  H14  1  0.10220000  0.14480000  0.86140000  1
  H  H15  1  0.10980000  0.19480000  0.46800000  1
  H  H16  1  0.12790000  0.78240000  0.85190000  1
  H  H17  1  0.13990000  0.28960000  0.77260000  1
  H  H18  1  0.14960000  0.55060000  0.80480000  1
  H  H19  1  0.14970000  0.28960000  0.27260000  1
  H  H20  1  0.15690000  0.49160000  0.31090000  1
  H  H21  1  0.15860000  0.60360000  0.97310000  1
  H  H22  1  0.21230000  0.43120000  0.84950000  1
  H  H23  1  0.21890000  0.43120000  0.34950000  1
  H  H24  1  0.24300000  0.60220000  0.12050000  1
  H  H25  1  0.24350000  0.72700000  0.37220000  1
  H  H26  1  0.24510000  0.84420000  0.48860000  1
  H  H27  1  0.25490000  0.62500000  0.22870000  1
  H  H28  1  0.26090000  0.95960000  0.51100000  1
  H  H29  1  0.27110000  0.34980000  0.73800000  1
  H  H30  1  0.27280000  0.99140000  0.87980000  1
  H  H31  1  0.28140000  0.00860000  0.62020000  1
  H  H32  1  0.30130000  0.04040000  0.98900000  1
  H  H33  1  0.31330000  0.22380000  0.78580000  1
  H  H34  1  0.33470000  0.49160000  0.81090000  1
  H  H35  1  0.34550000  0.21760000  0.64810000  1
  H  H36  1  0.35920000  0.60220000  0.62050000  1
  H  H37  1  0.37010000  0.62500000  0.72870000  1
  H  H38  1  0.37840000  0.76560000  0.06800000  1
  H  H39  1  0.37860000  0.39520000  0.17030000  1
  H  H40  1  0.38720000  0.76560000  0.56800000  1
  H  H41  1  0.38910000  0.80440000  0.17560000  1
  H  H42  1  0.39220000  0.43720000  0.28160000  1
  H  H43  1  0.40090000  0.15580000  0.01140000  1
  H  H44  1  0.40100000  0.55060000  0.30480000  1
  H  H45  1  0.40750000  0.89520000  0.98510000  1
  H  H46  1  0.41530000  0.80440000  0.67560000  1
  H  H47  1  0.42330000  0.33560000  0.80860000  1
  H  H48  1  0.42360000  0.40440000  0.91690000  1
  H  H49  1  0.43130000  0.95480000  0.44390000  1
  H  H50  1  0.44500000  0.60360000  0.47310000  1
  H  H51  1  0.47650000  0.04520000  0.05610000  1
  H  H52  1  0.48350000  0.72700000  0.87220000  1
  H  H53  1  0.48770000  0.89520000  0.48510000  1
  H  H54  1  0.51230000  0.10480000  0.51490000  1
  H  H55  1  0.51650000  0.27300000  0.12780000  1
  H  H56  1  0.52350000  0.95480000  0.94390000  1
  H  H57  1  0.55500000  0.39640000  0.52690000  1
  H  H58  1  0.56870000  0.04520000  0.55610000  1
  H  H59  1  0.57640000  0.59560000  0.08310000  1
  H  H60  1  0.57670000  0.66440000  0.19140000  1
  H  H61  1  0.58470000  0.19560000  0.32440000  1
  H  H62  1  0.59250000  0.10480000  0.01490000  1
  H  H63  1  0.59900000  0.44940000  0.69520000  1
  H  H64  1  0.59910000  0.84420000  0.98860000  1
  H  H65  1  0.60780000  0.56280000  0.71840000  1
  H  H66  1  0.61090000  0.19560000  0.82440000  1
  H  H67  1  0.61280000  0.23440000  0.43200000  1
  H  H68  1  0.62140000  0.60480000  0.82970000  1
  H  H69  1  0.62160000  0.23440000  0.93200000  1
  H  H70  1  0.62990000  0.37500000  0.27130000  1
  H  H71  1  0.64080000  0.39780000  0.37950000  1
  H  H72  1  0.65450000  0.78240000  0.35190000  1
  H  H73  1  0.66530000  0.50840000  0.18910000  1
  H  H74  1  0.68670000  0.77620000  0.21420000  1
  H  H75  1  0.69870000  0.95960000  0.01100000  1
  H  H76  1  0.71860000  0.99140000  0.37980000  1
  H  H77  1  0.72720000  0.00860000  0.12020000  1
  H  H78  1  0.72890000  0.65020000  0.26200000  1
  H  H79  1  0.73910000  0.04040000  0.48900000  1
  H  H80  1  0.74510000  0.37500000  0.77130000  1
  H  H81  1  0.75490000  0.15580000  0.51140000  1
  H  H82  1  0.75650000  0.27300000  0.62780000  1
  H  H83  1  0.75700000  0.39780000  0.87950000  1
  H  H84  1  0.78110000  0.56880000  0.65050000  1
  H  H85  1  0.78770000  0.56880000  0.15050000  1
  H  H86  1  0.84140000  0.39640000  0.02690000  1
  H  H87  1  0.84310000  0.50840000  0.68910000  1
  H  H88  1  0.85030000  0.71040000  0.72740000  1
  H  H89  1  0.85040000  0.44940000  0.19520000  1
  H  H90  1  0.86010000  0.71040000  0.22740000  1
  H  H91  1  0.87210000  0.21760000  0.14810000  1
  H  H92  1  0.89020000  0.80520000  0.53200000  1
  H  H93  1  0.89780000  0.85520000  0.13860000  1
  H  H94  1  0.91050000  0.22380000  0.28580000  1
  H  H95  1  0.91230000  0.33560000  0.30860000  1
  H  H96  1  0.91500000  0.80520000  0.03200000  1
  H  H97  1  0.92130000  0.65020000  0.76200000  1
  H  H98  1  0.95500000  0.56280000  0.21840000  1
  H  H99  1  0.95740000  0.85520000  0.63860000  1
  H  H100  1  0.98080000  0.40440000  0.41690000  1
  H  H101  1  0.98340000  0.60480000  0.32970000  1
  C  C102  1  0.00560000  0.34620000  0.41680000  1
  C  C103  1  0.03030000  0.32320000  0.06920000  1
  C  C104  1  0.03340000  0.70900000  0.69220000  1
  C  C105  1  0.03880000  0.20300000  0.38520000  1
  C  C106  1  0.07570000  0.23160000  0.44450000  1
  C  C107  1  0.10190000  0.33880000  0.27730000  1
  C  C108  1  0.10360000  0.44980000  0.67100000  1
  C  C109  1  0.11910000  0.69200000  0.91650000  1
  C  C110  1  0.14200000  0.48540000  0.78140000  1
  C  C111  1  0.15590000  0.23160000  0.94450000  1
  C  C112  1  0.16420000  0.20300000  0.88520000  1
  C  C113  1  0.17976000  0.75192000  0.87130000  1
  C  C114  1  0.19100000  0.60900000  0.45910000  1
  C  C115  1  0.19826000  0.64492000  0.94373000  1
  C  C116  1  0.20220000  0.44100000  0.30910000  1
  C  C117  1  0.23690000  0.33880000  0.77730000  1
  C  C118  1  0.23880000  0.44100000  0.80910000  1
  C  C119  1  0.27200000  0.56280000  0.14400000  1
  C  C120  1  0.27850000  0.57620000  0.20380000  1
  C  C121  1  0.29080000  0.56280000  0.64400000  1
  C  C122  1  0.29290000  0.32320000  0.56920000  1
  C  C123  1  0.29770000  0.57620000  0.70380000  1
  C  C124  1  0.30560000  0.90900000  0.51160000  1
  C  C125  1  0.31200000  0.95320000  0.62060000  1
  C  C126  1  0.31617000  0.76594000  0.85530000  1
  C  C127  1  0.32440000  0.29100000  0.80780000  1
  C  C128  1  0.32627000  0.65834000  0.42823000  1
  C  C129  1  0.32627000  0.71874000  0.38321000  1
  C  C130  1  0.33207000  0.65834000  0.92823000  1
  C  C131  1  0.34060000  0.34620000  0.91680000  1
  C  C132  1  0.34340000  0.48540000  0.28140000  1
  C  C133  1  0.34620000  0.44980000  0.17100000  1
  C  C134  1  0.35880000  0.04680000  0.87940000  1
  C  C135  1  0.36990000  0.81920000  0.59140000  1
  C  C136  1  0.37990000  0.83460000  0.80850000  1
  C  C137  1  0.38530000  0.84140000  0.65070000  1
  C  C138  1  0.39247000  0.71874000  0.88321000  1
  C  C139  1  0.39660000  0.09100000  0.98840000  1
  C  C140  1  0.41800000  0.60900000  0.95910000  1
  C  C141  1  0.42710000  0.30800000  0.58350000  1
  C  C142  1  0.42784000  0.24808000  0.62870000  1
  C  C143  1  0.44620000  0.94780000  0.48500000  1
  C  C144  1  0.44666000  0.64492000  0.44373000  1
  C  C145  1  0.44930000  0.81920000  0.09140000  1
  C  C146  1  0.44977000  0.76594000  0.35530000  1
  C  C147  1  0.45470000  0.83460000  0.30850000  1
  C  C148  1  0.45610000  0.84140000  0.15070000  1
  C  C149  1  0.49840000  0.05220000  0.01500000  1
  C  C150  1  0.50160000  0.94780000  0.98500000  1
  C  C151  1  0.54390000  0.15860000  0.84930000  1
  C  C152  1  0.54530000  0.16540000  0.69150000  1
  C  C153  1  0.55023000  0.23406000  0.64470000  1
  C  C154  1  0.55070000  0.18080000  0.90860000  1
  C  C155  1  0.55334000  0.35508000  0.55627000  1
  C  C156  1  0.55380000  0.05220000  0.51500000  1
  C  C157  1  0.57216000  0.75192000  0.37130000  1
  C  C158  1  0.57290000  0.69200000  0.41650000  1
  C  C159  1  0.58200000  0.39100000  0.04090000  1
  C  C160  1  0.60340000  0.90900000  0.01160000  1
  C  C161  1  0.60753000  0.28126000  0.11679000  1
  C  C162  1  0.61470000  0.15860000  0.34930000  1
  C  C163  1  0.62010000  0.16540000  0.19150000  1
  C  C164  1  0.63010000  0.18080000  0.40860000  1
  C  C165  1  0.64120000  0.95320000  0.12060000  1
  C  C166  1  0.65380000  0.55020000  0.82900000  1
  C  C167  1  0.65660000  0.51460000  0.71860000  1
  C  C168  1  0.65940000  0.65380000  0.08320000  1
  C  C169  1  0.66793000  0.34166000  0.07177000  1
  C  C170  1  0.67373000  0.28126000  0.61679000  1
  C  C171  1  0.67373000  0.34166000  0.57177000  1
  C  C172  1  0.67560000  0.70900000  0.19220000  1
  C  C173  1  0.68383000  0.23406000  0.14470000  1
  C  C174  1  0.68800000  0.04680000  0.37940000  1
  C  C175  1  0.69440000  0.09100000  0.48840000  1
  C  C176  1  0.70230000  0.42380000  0.29620000  1
  C  C177  1  0.70710000  0.67680000  0.43080000  1
  C  C178  1  0.70920000  0.43720000  0.35600000  1
  C  C179  1  0.72150000  0.42380000  0.79620000  1
  C  C180  1  0.72800000  0.43720000  0.85600000  1
  C  C181  1  0.76120000  0.55900000  0.19090000  1
  C  C182  1  0.76310000  0.66120000  0.22270000  1
  C  C183  1  0.79780000  0.55900000  0.69090000  1
  C  C184  1  0.80174000  0.35508000  0.05627000  1
  C  C185  1  0.80900000  0.39100000  0.54090000  1
  C  C186  1  0.82024000  0.24808000  0.12870000  1
  C  C187  1  0.83580000  0.79700000  0.11480000  1
  C  C188  1  0.84410000  0.76840000  0.05550000  1
  C  C189  1  0.85800000  0.51460000  0.21860000  1
  C  C190  1  0.88090000  0.30800000  0.08350000  1
  C  C191  1  0.89640000  0.55020000  0.32900000  1
  C  C192  1  0.89810000  0.66120000  0.72270000  1
  C  C193  1  0.92430000  0.76840000  0.55550000  1
  C  C194  1  0.96120000  0.79700000  0.61480000  1
  C  C195  1  0.96660000  0.29100000  0.30780000  1
  C  C196  1  0.96970000  0.67680000  0.93080000  1
  C  C197  1  0.99440000  0.65380000  0.58320000  1
  N  N198  1  0.00412000  0.72304000  0.63117000  1
  N  N199  1  0.05489000  0.32118000  0.46383000  1
  N  N200  1  0.16873000  0.48286000  0.62309000  1
  N  N201  1  0.17727000  0.50374000  0.72025000  1
  N  N202  1  0.26629000  0.32118000  0.96383000  1
  N  N203  1  0.28108000  0.27696000  0.86883000  1
  N  N204  1  0.31413000  0.48286000  0.12309000  1
  N  N205  1  0.32308000  0.89156000  0.57252000  1
  N  N206  1  0.32647000  0.50374000  0.22025000  1
  N  N207  1  0.35112000  0.92464000  0.66905000  1
  N  N208  1  0.42648000  0.07536000  0.83095000  1
  N  N209  1  0.43152000  0.10844000  0.92748000  1
  N  N210  1  0.56848000  0.89156000  0.07252000  1
  N  N211  1  0.57352000  0.92464000  0.16905000  1
  N  N212  1  0.64888000  0.07536000  0.33095000  1
  N  N213  1  0.67353000  0.49626000  0.77975000  1
  N  N214  1  0.67692000  0.10844000  0.42748000  1
  N  N215  1  0.68587000  0.51714000  0.87691000  1
  N  N216  1  0.71892000  0.72304000  0.13117000  1
  N  N217  1  0.73371000  0.67882000  0.03617000  1
  N  N218  1  0.82273000  0.49626000  0.27975000  1
  N  N219  1  0.83127000  0.51714000  0.37691000  1
  N  N220  1  0.94511000  0.67882000  0.53617000  1
  N  N221  1  0.99588000  0.27696000  0.36883000  1
  O  O222  1  0.08237000  0.61714000  0.43682000  1
  O  O223  1  0.08384000  0.26488000  0.08617000  1
  O  O224  1  0.09397000  0.39734000  0.03913000  1
  O  O225  1  0.18104000  0.26488000  0.58617000  1
  O  O226  1  0.19552000  0.56524000  0.50261000  1
  O  O227  1  0.30162000  0.87064000  0.78419000  1
  O  O228  1  0.30337000  0.39734000  0.53913000  1
  O  O229  1  0.35080000  0.85640000  0.29960000  1
  O  O230  1  0.36972000  0.56524000  0.00261000  1
  O  O231  1  0.43098000  0.12936000  0.71581000  1
  O  O232  1  0.46523000  0.38286000  0.06318000  1
  O  O233  1  0.49440000  0.14360000  0.20040000  1
  O  O234  1  0.50560000  0.85640000  0.79960000  1
  O  O235  1  0.53477000  0.61714000  0.93682000  1
  O  O236  1  0.56902000  0.87064000  0.28419000  1
  O  O237  1  0.63028000  0.43476000  0.99739000  1
  O  O238  1  0.64920000  0.14360000  0.70040000  1
  O  O239  1  0.69663000  0.60266000  0.46087000  1
  O  O240  1  0.69838000  0.12936000  0.21581000  1
  O  O241  1  0.80448000  0.43476000  0.49739000  1
  O  O242  1  0.81896000  0.73512000  0.41383000  1
  O  O243  1  0.90603000  0.60266000  0.96087000  1
  O  O244  1  0.91616000  0.73512000  0.91383000  1
  O  O245  1  0.91763000  0.38286000  0.56318000  1
