# generated using pymatgen
data_Mn5NiH20C52N4(ClO9)2
_symmetry_space_group_name_H-M   'P 1'
_cell_length_a   18.77720000
_cell_length_b   18.77720000
_cell_length_c   19.74405030
_cell_angle_alpha   112.88110498
_cell_angle_beta   112.88110498
_cell_angle_gamma   100.50500000
_symmetry_Int_Tables_number   1
_chemical_formula_structural   Mn5NiH20C52N4(ClO9)2
_chemical_formula_sum   'Mn10 Ni2 H40 C104 N8 Cl4 O36'
_cell_volume   5433.78793950
_cell_formula_units_Z   2
loop_
 _symmetry_equiv_pos_site_id
 _symmetry_equiv_pos_as_xyz
  1  'x, y, z'
loop_
 _atom_site_type_symbol
 _atom_site_label
 _atom_site_symmetry_multiplicity
 _atom_site_fract_x
 _atom_site_fract_y
 _atom_site_fract_z
 _atom_site_occupancy
  Mn  Mn0  1  0.50000000  0.50000000  0.50000000  1
  Mn  Mn1  1  0.31527000  0.31527000  0.30246000  1
  Mn  Mn2  1  0.58589000  0.03029000  1.00000000  1
  Mn  Mn3  1  0.01281000  0.01281000  0.69754000  1
  Mn  Mn4  1  0.96971000  0.41411000  0.00000000  1
  Mn  Mn5  1  0.00000000  0.00000000  0.50000000  1
  Mn  Mn6  1  0.03029000  0.58589000  1.00000000  1
  Mn  Mn7  1  0.98719000  0.98719000  0.30246000  1
  Mn  Mn8  1  0.41411000  0.96971000  1.00000000  1
  Mn  Mn9  1  0.68473000  0.68473000  0.69754000  1
  Ni  Ni10  1  0.00000000  0.50000000  0.50000000  1
  Ni  Ni11  1  0.50000000  0.00000000  0.50000000  1
  H  H12  1  0.66340000  0.42640000  0.40980000  1
  H  H13  1  0.46470000  0.22590000  0.20480000  1
  H  H14  1  0.69040000  0.26020000  0.23180000  1
  H  H15  1  0.26190000  0.70590000  0.55860000  1
  H  H16  1  0.71910000  0.44670000  0.26540000  1
  H  H17  1  0.25990000  0.02110000  0.79520000  1
  H  H18  1  0.42640000  0.66340000  0.40980000  1
  H  H19  1  0.22590000  0.46470000  0.20480000  1
  H  H20  1  0.45860000  0.02840000  0.76820000  1
  H  H21  1  0.14730000  0.70330000  0.44140000  1
  H  H22  1  0.81870000  0.54630000  0.26540000  1
  H  H23  1  0.29670000  0.85270000  0.55860000  1
  H  H24  1  0.29410000  0.73810000  0.44140000  1
  H  H25  1  0.97160000  0.54140000  0.23180000  1
  H  H26  1  0.98340000  0.74640000  0.40980000  1
  H  H27  1  0.25360000  0.01660000  0.59020000  1
  H  H28  1  0.45370000  0.18130000  0.73460000  1
  H  H29  1  0.44670000  0.71910000  0.26540000  1
  H  H30  1  0.26020000  0.69040000  0.23180000  1
  H  H31  1  0.02110000  0.25990000  0.79520000  1
  H  H32  1  0.97890000  0.74010000  0.20480000  1
  H  H33  1  0.73980000  0.30960000  0.76820000  1
  H  H34  1  0.55330000  0.28090000  0.73460000  1
  H  H35  1  0.54630000  0.81870000  0.26540000  1
  H  H36  1  0.74640000  0.98340000  0.40980000  1
  H  H37  1  0.01660000  0.25360000  0.59020000  1
  H  H38  1  0.02840000  0.45860000  0.76820000  1
  H  H39  1  0.70590000  0.26190000  0.55860000  1
  H  H40  1  0.70330000  0.14730000  0.44140000  1
  H  H41  1  0.18130000  0.45370000  0.73460000  1
  H  H42  1  0.85270000  0.29670000  0.55860000  1
  H  H43  1  0.54140000  0.97160000  0.23180000  1
  H  H44  1  0.77410000  0.53530000  0.79520000  1
  H  H45  1  0.57360000  0.33660000  0.59020000  1
  H  H46  1  0.74010000  0.97890000  0.20480000  1
  H  H47  1  0.28090000  0.55330000  0.73460000  1
  H  H48  1  0.73810000  0.29410000  0.44140000  1
  H  H49  1  0.30960000  0.73980000  0.76820000  1
  H  H50  1  0.53530000  0.77410000  0.79520000  1
  H  H51  1  0.33660000  0.57360000  0.59020000  1
  C  C52  1  0.78633000  0.39753000  0.38406000  1
  C  C53  1  0.69280000  0.34900000  0.33200000  1
  C  C54  1  0.64090000  0.37610000  0.35900000  1
  C  C55  1  0.55400000  0.32900000  0.31120000  1
  C  C56  1  0.49920000  0.36120000  0.34280000  1
  C  C57  1  0.52240000  0.25740000  0.23660000  1
  C  C58  1  0.53530000  0.14630000  0.12380000  1
  C  C59  1  0.57220000  0.22920000  0.20620000  1
  C  C60  1  0.65634000  0.27674000  0.25328000  1
  C  C61  1  0.16760000  0.61740000  0.55160000  1
  C  C62  1  0.82360000  0.45140000  0.36720000  1
  C  C63  1  0.20490000  0.67410000  0.53200000  1
  C  C64  1  0.41150000  0.02250000  0.87620000  1
  C  C65  1  0.36120000  0.49920000  0.34280000  1
  C  C66  1  0.06580000  0.61600000  0.44840000  1
  C  C67  1  0.77710000  0.46970000  0.30100000  1
  C  C68  1  0.91580000  0.54360000  0.36720000  1
  C  C69  1  0.14210000  0.67290000  0.46800000  1
  C  C70  1  0.98653000  0.59773000  0.38406000  1
  C  C71  1  0.83130000  0.52390000  0.30100000  1
  C  C72  1  0.36600000  0.02300000  0.79380000  1
  C  C73  1  0.32900000  0.55400000  0.31120000  1
  C  C74  1  0.28580000  0.02080000  0.76340000  1
  C  C75  1  0.40306000  0.02346000  0.74672000  1
  C  C76  1  0.37610000  0.64090000  0.35900000  1
  C  C77  1  0.25740000  0.52240000  0.23660000  1
  C  C78  1  0.98300000  0.63920000  0.33200000  1
  C  C79  1  0.32710000  0.85790000  0.53200000  1
  C  C80  1  0.32590000  0.79510000  0.46800000  1
  C  C81  1  0.24280000  0.01780000  0.68880000  1
  C  C82  1  0.97654000  0.59694000  0.25328000  1
  C  C83  1  0.36080000  0.01700000  0.66800000  1
  C  C84  1  0.98290000  0.71810000  0.35900000  1
  C  C85  1  0.34900000  0.69280000  0.33200000  1
  C  C86  1  0.15640000  0.01840000  0.65720000  1
  C  C87  1  0.22920000  0.57220000  0.20620000  1
  C  C88  1  0.28190000  0.01710000  0.64100000  1
  C  C89  1  0.38400000  0.93420000  0.55160000  1
  C  C90  1  0.38260000  0.83240000  0.44840000  1
  C  C91  1  0.40227000  0.01347000  0.61594000  1
  C  C92  1  0.39753000  0.78633000  0.38406000  1
  C  C93  1  0.27674000  0.65634000  0.25328000  1
  C  C94  1  0.14630000  0.53530000  0.12380000  1
  C  C95  1  0.97700000  0.63400000  0.20620000  1
  C  C96  1  0.98220000  0.75720000  0.31120000  1
  C  C97  1  0.45640000  0.08420000  0.63280000  1
  C  C98  1  0.45140000  0.82360000  0.36720000  1
  C  C99  1  0.97750000  0.58850000  0.12380000  1
  C  C100  1  0.47610000  0.16870000  0.69900000  1
  C  C101  1  0.46970000  0.77710000  0.30100000  1
  C  C102  1  0.97920000  0.71420000  0.23660000  1
  C  C103  1  0.01840000  0.15640000  0.65720000  1
  C  C104  1  0.98160000  0.84360000  0.34280000  1
  C  C105  1  0.02080000  0.28580000  0.76340000  1
  C  C106  1  0.53030000  0.22290000  0.69900000  1
  C  C107  1  0.52390000  0.83130000  0.30100000  1
  C  C108  1  0.02250000  0.41150000  0.87620000  1
  C  C109  1  0.54860000  0.17640000  0.63280000  1
  C  C110  1  0.54360000  0.91580000  0.36720000  1
  C  C111  1  0.01780000  0.24280000  0.68880000  1
  C  C112  1  0.02300000  0.36600000  0.79380000  1
  C  C113  1  0.85370000  0.46470000  0.87620000  1
  C  C114  1  0.72326000  0.34366000  0.74672000  1
  C  C115  1  0.60247000  0.21367000  0.61594000  1
  C  C116  1  0.59773000  0.98653000  0.38406000  1
  C  C117  1  0.61740000  0.16760000  0.55160000  1
  C  C118  1  0.61600000  0.06580000  0.44840000  1
  C  C119  1  0.71810000  0.98290000  0.35900000  1
  C  C120  1  0.77080000  0.42780000  0.79380000  1
  C  C121  1  0.84360000  0.98160000  0.34280000  1
  C  C122  1  0.65100000  0.30720000  0.66800000  1
  C  C123  1  0.01710000  0.28190000  0.64100000  1
  C  C124  1  0.63920000  0.98300000  0.33200000  1
  C  C125  1  0.02346000  0.40306000  0.74672000  1
  C  C126  1  0.75720000  0.98220000  0.31120000  1
  C  C127  1  0.67410000  0.20490000  0.53200000  1
  C  C128  1  0.67290000  0.14210000  0.46800000  1
  C  C129  1  0.01700000  0.36080000  0.66800000  1
  C  C130  1  0.74260000  0.47760000  0.76340000  1
  C  C131  1  0.62390000  0.35910000  0.64100000  1
  C  C132  1  0.59694000  0.97654000  0.25328000  1
  C  C133  1  0.71420000  0.97920000  0.23660000  1
  C  C134  1  0.67100000  0.44600000  0.68880000  1
  C  C135  1  0.63400000  0.97700000  0.20620000  1
  C  C136  1  0.16870000  0.47610000  0.69900000  1
  C  C137  1  0.01347000  0.40227000  0.61594000  1
  C  C138  1  0.85790000  0.32710000  0.53200000  1
  C  C139  1  0.08420000  0.45640000  0.63280000  1
  C  C140  1  0.22290000  0.53030000  0.69900000  1
  C  C141  1  0.93420000  0.38400000  0.55160000  1
  C  C142  1  0.63880000  0.50080000  0.65720000  1
  C  C143  1  0.58850000  0.97750000  0.12380000  1
  C  C144  1  0.79510000  0.32590000  0.46800000  1
  C  C145  1  0.17640000  0.54860000  0.63280000  1
  C  C146  1  0.83240000  0.38260000  0.44840000  1
  C  C147  1  0.34366000  0.72326000  0.74672000  1
  C  C148  1  0.42780000  0.77080000  0.79380000  1
  C  C149  1  0.46470000  0.85370000  0.87620000  1
  C  C150  1  0.47760000  0.74260000  0.76340000  1
  C  C151  1  0.50080000  0.63880000  0.65720000  1
  C  C152  1  0.44600000  0.67100000  0.68880000  1
  C  C153  1  0.35910000  0.62390000  0.64100000  1
  C  C154  1  0.30720000  0.65100000  0.66800000  1
  C  C155  1  0.21367000  0.60247000  0.61594000  1
  N  N156  1  0.08100000  0.58100000  0.50000000  1
  N  N157  1  0.90620000  0.49840000  0.40460000  1
  N  N158  1  0.41900000  0.91900000  0.50000000  1
  N  N159  1  0.50160000  0.09380000  0.59540000  1
  N  N160  1  0.49840000  0.90620000  0.40460000  1
  N  N161  1  0.58100000  0.08100000  0.50000000  1
  N  N162  1  0.09380000  0.50160000  0.59540000  1
  N  N163  1  0.91900000  0.41900000  0.50000000  1
  Cl  Cl164  1  0.70677000  0.08857000  1.00000000  1
  Cl  Cl165  1  0.91143000  0.29323000  1.00000000  1
  Cl  Cl166  1  0.08857000  0.70677000  0.00000000  1
  Cl  Cl167  1  0.29323000  0.91143000  0.00000000  1
  O  O168  1  0.46334000  0.09654000  0.09328000  1
  O  O169  1  0.53342000  0.42714000  0.41236000  1
  O  O170  1  0.42390000  0.31730000  0.29660000  1
  O  O171  1  0.58323000  0.13303000  0.09506000  1
  O  O172  1  0.61730000  0.61730000  0.55260000  1
  O  O173  1  0.37006000  0.00326000  0.90672000  1
  O  O174  1  0.42714000  0.53342000  0.41236000  1
  O  O175  1  0.31730000  0.42390000  0.29660000  1
  O  O176  1  0.48817000  0.03797000  0.90494000  1
  O  O177  1  0.12730000  0.02070000  0.70340000  1
  O  O178  1  0.09654000  0.46334000  0.09328000  1
  O  O179  1  0.93530000  0.93530000  0.55260000  1
  O  O180  1  0.96203000  0.51183000  0.09506000  1
  O  O181  1  0.02070000  0.12730000  0.70340000  1
  O  O182  1  0.12106000  0.01478000  0.58764000  1
  O  O183  1  0.00326000  0.37006000  0.90672000  1
  O  O184  1  0.98522000  0.87894000  0.41236000  1
  O  O185  1  0.13303000  0.58323000  0.09506000  1
  O  O186  1  0.86697000  0.41677000  0.90494000  1
  O  O187  1  0.01478000  0.12106000  0.58764000  1
  O  O188  1  0.99674000  0.62994000  0.09328000  1
  O  O189  1  0.87894000  0.98522000  0.41236000  1
  O  O190  1  0.97930000  0.87270000  0.29660000  1
  O  O191  1  0.03797000  0.48817000  0.90494000  1
  O  O192  1  0.06470000  0.06470000  0.44740000  1
  O  O193  1  0.90346000  0.53666000  0.90672000  1
  O  O194  1  0.87270000  0.97930000  0.29660000  1
  O  O195  1  0.51183000  0.96203000  0.09506000  1
  O  O196  1  0.68270000  0.57610000  0.70340000  1
  O  O197  1  0.57286000  0.46658000  0.58764000  1
  O  O198  1  0.62994000  0.99674000  0.09328000  1
  O  O199  1  0.38270000  0.38270000  0.44740000  1
  O  O200  1  0.41677000  0.86697000  0.90494000  1
  O  O201  1  0.57610000  0.68270000  0.70340000  1
  O  O202  1  0.46658000  0.57286000  0.58764000  1
  O  O203  1  0.53666000  0.90346000  0.90672000  1
