# generated using pymatgen
data_ErCuH9C16(NO5)2
_symmetry_space_group_name_H-M   'P 1'
_cell_length_a   10.63200000
_cell_length_b   13.86200000
_cell_length_c   19.49800000
_cell_angle_alpha   90.00000000
_cell_angle_beta   99.98000000
_cell_angle_gamma   90.00000000
_symmetry_Int_Tables_number   1
_chemical_formula_structural   ErCuH9C16(NO5)2
_chemical_formula_sum   'Er4 Cu4 H36 C64 N8 O40'
_cell_volume   2830.14763341
_cell_formula_units_Z   4
loop_
 _symmetry_equiv_pos_site_id
 _symmetry_equiv_pos_as_xyz
  1  'x, y, z'
loop_
 _atom_site_type_symbol
 _atom_site_label
 _atom_site_symmetry_multiplicity
 _atom_site_fract_x
 _atom_site_fract_y
 _atom_site_fract_z
 _atom_site_occupancy
  Er  Er0  1  0.15502000  0.06708000  0.55591000  1
  Er  Er1  1  0.15502000  0.43292000  0.05591000  1
  Er  Er2  1  0.84498000  0.56708000  0.94409000  1
  Er  Er3  1  0.84498000  0.93292000  0.44409000  1
  Cu  Cu4  1  0.24343000  0.56790000  0.71058000  1
  Cu  Cu5  1  0.24343000  0.93210000  0.21058000  1
  Cu  Cu6  1  0.75657000  0.06790000  0.78942000  1
  Cu  Cu7  1  0.75657000  0.43210000  0.28942000  1
  H  H8  1  0.02040000  0.62510000  0.78330000  1
  H  H9  1  0.02040000  0.87490000  0.28330000  1
  H  H10  1  0.10490000  0.24080000  0.21130000  1
  H  H11  1  0.10490000  0.25920000  0.71130000  1
  H  H12  1  0.21610000  0.73950000  0.16120000  1
  H  H13  1  0.21610000  0.76050000  0.66120000  1
  H  H14  1  0.22210000  0.74360000  0.93420000  1
  H  H15  1  0.22210000  0.75640000  0.43420000  1
  H  H16  1  0.23940000  0.11430000  0.13510000  1
  H  H17  1  0.23940000  0.38570000  0.63510000  1
  H  H18  1  0.26020000  0.70170000  0.00960000  1
  H  H19  1  0.26020000  0.79830000  0.50960000  1
  H  H20  1  0.28030000  0.63970000  0.94510000  1
  H  H21  1  0.28030000  0.86030000  0.44510000  1
  H  H22  1  0.38350000  0.64360000  0.21390000  1
  H  H23  1  0.38350000  0.85640000  0.71390000  1
  H  H24  1  0.49720000  0.50190000  0.22270000  1
  H  H25  1  0.49720000  0.99810000  0.72270000  1
  H  H26  1  0.50280000  0.00190000  0.27730000  1
  H  H27  1  0.50280000  0.49810000  0.77730000  1
  H  H28  1  0.61650000  0.14360000  0.28610000  1
  H  H29  1  0.61650000  0.35640000  0.78610000  1
  H  H30  1  0.71970000  0.13970000  0.55490000  1
  H  H31  1  0.71970000  0.36030000  0.05490000  1
  H  H32  1  0.73980000  0.20170000  0.49040000  1
  H  H33  1  0.73980000  0.29830000  0.99040000  1
  H  H34  1  0.76060000  0.61430000  0.36490000  1
  H  H35  1  0.76060000  0.88570000  0.86490000  1
  H  H36  1  0.77790000  0.24360000  0.56580000  1
  H  H37  1  0.77790000  0.25640000  0.06580000  1
  H  H38  1  0.78390000  0.23950000  0.33880000  1
  H  H39  1  0.78390000  0.26050000  0.83880000  1
  H  H40  1  0.89510000  0.74080000  0.28870000  1
  H  H41  1  0.89510000  0.75920000  0.78870000  1
  H  H42  1  0.97960000  0.12510000  0.71670000  1
  H  H43  1  0.97960000  0.37490000  0.21670000  1
  C  C44  1  0.01810000  0.15540000  0.27210000  1
  C  C45  1  0.01810000  0.34460000  0.77210000  1
  C  C46  1  0.03520000  0.68030000  0.75870000  1
  C  C47  1  0.03520000  0.81970000  0.25870000  1
  C  C48  1  0.03960000  0.23890000  0.23750000  1
  C  C49  1  0.03960000  0.26110000  0.73750000  1
  C  C50  1  0.08290000  0.65530000  0.19070000  1
  C  C51  1  0.08290000  0.84470000  0.69070000  1
  C  C52  1  0.09490000  0.64510000  0.95760000  1
  C  C53  1  0.09490000  0.85490000  0.45760000  1
  C  C54  1  0.11090000  0.07230000  0.27240000  1
  C  C55  1  0.11090000  0.42770000  0.77240000  1
  C  C56  1  0.12040000  0.56870000  0.15250000  1
  C  C57  1  0.12040000  0.93130000  0.65250000  1
  C  C58  1  0.15110000  0.73930000  0.18760000  1
  C  C59  1  0.15110000  0.76070000  0.68760000  1
  C  C60  1  0.22610000  0.68620000  0.96200000  1
  C  C61  1  0.22610000  0.81380000  0.46200000  1
  C  C62  1  0.30860000  0.20990000  0.62800000  1
  C  C63  1  0.30860000  0.29010000  0.12800000  1
  C  C64  1  0.31500000  0.12100000  0.16690000  1
  C  C65  1  0.31500000  0.37900000  0.66690000  1
  C  C66  1  0.37590000  0.20850000  0.17100000  1
  C  C67  1  0.37590000  0.29150000  0.67100000  1
  C  C68  1  0.43210000  0.68880000  0.78090000  1
  C  C69  1  0.43210000  0.81120000  0.28090000  1
  C  C70  1  0.46120000  0.63940000  0.24410000  1
  C  C71  1  0.46120000  0.86060000  0.74410000  1
  C  C72  1  0.47050000  0.05440000  0.25000000  1
  C  C73  1  0.47050000  0.44560000  0.75000000  1
  C  C74  1  0.49080000  0.21870000  0.21660000  1
  C  C75  1  0.49080000  0.28130000  0.71660000  1
  C  C76  1  0.50920000  0.71870000  0.28340000  1
  C  C77  1  0.50920000  0.78130000  0.78340000  1
  C  C78  1  0.52950000  0.55440000  0.25000000  1
  C  C79  1  0.52950000  0.94560000  0.75000000  1
  C  C80  1  0.53880000  0.13940000  0.25590000  1
  C  C81  1  0.53880000  0.36060000  0.75590000  1
  C  C82  1  0.56790000  0.18880000  0.71910000  1
  C  C83  1  0.56790000  0.31120000  0.21910000  1
  C  C84  1  0.62410000  0.70850000  0.32900000  1
  C  C85  1  0.62410000  0.79150000  0.82900000  1
  C  C86  1  0.68500000  0.62100000  0.33310000  1
  C  C87  1  0.68500000  0.87900000  0.83310000  1
  C  C88  1  0.69140000  0.70990000  0.87200000  1
  C  C89  1  0.69140000  0.79010000  0.37200000  1
  C  C90  1  0.77390000  0.18620000  0.53800000  1
  C  C91  1  0.77390000  0.31380000  0.03800000  1
  C  C92  1  0.84890000  0.23930000  0.31240000  1
  C  C93  1  0.84890000  0.26070000  0.81240000  1
  C  C94  1  0.87960000  0.06870000  0.34750000  1
  C  C95  1  0.87960000  0.43130000  0.84750000  1
  C  C96  1  0.88910000  0.57230000  0.22760000  1
  C  C97  1  0.88910000  0.92770000  0.72760000  1
  C  C98  1  0.90510000  0.14510000  0.54240000  1
  C  C99  1  0.90510000  0.35490000  0.04240000  1
  C  C100  1  0.91710000  0.15530000  0.30930000  1
  C  C101  1  0.91710000  0.34470000  0.80930000  1
  C  C102  1  0.96040000  0.73890000  0.26250000  1
  C  C103  1  0.96040000  0.76110000  0.76250000  1
  C  C104  1  0.96480000  0.18030000  0.74130000  1
  C  C105  1  0.96480000  0.31970000  0.24130000  1
  C  C106  1  0.98190000  0.65540000  0.22790000  1
  C  C107  1  0.98190000  0.84460000  0.72790000  1
  N  N108  1  0.12900000  0.67980000  0.72040000  1
  N  N109  1  0.12900000  0.82020000  0.22040000  1
  N  N110  1  0.35830000  0.04470000  0.20600000  1
  N  N111  1  0.35830000  0.45530000  0.70600000  1
  N  N112  1  0.64170000  0.54470000  0.29400000  1
  N  N113  1  0.64170000  0.95530000  0.79400000  1
  N  N114  1  0.87100000  0.17980000  0.77960000  1
  N  N115  1  0.87100000  0.32020000  0.27960000  1
  O  O116  1  0.00290000  0.19130000  0.57095000  1
  O  O117  1  0.00290000  0.30870000  0.07095000  1
  O  O118  1  0.05750000  0.00830000  0.65109000  1
  O  O119  1  0.05750000  0.49170000  0.15109000  1
  O  O120  1  0.07970000  0.56100000  0.98137000  1
  O  O121  1  0.07970000  0.93900000  0.48137000  1
  O  O122  1  0.10070000  0.02390000  0.21587000  1
  O  O123  1  0.10070000  0.47610000  0.71587000  1
  O  O124  1  0.19590000  0.06090000  0.32397000  1
  O  O125  1  0.19590000  0.43910000  0.82397000  1
  O  O126  1  0.21600000  0.57640000  0.12134000  1
  O  O127  1  0.21600000  0.92360000  0.62134000  1
  O  O128  1  0.26990000  0.22280000  0.56410000  1
  O  O129  1  0.26990000  0.27720000  0.06410000  1
  O  O130  1  0.28670000  0.13290000  0.65912000  1
  O  O131  1  0.28670000  0.36710000  0.15912000  1
  O  O132  1  0.38840000  0.65840000  0.71865000  1
  O  O133  1  0.38840000  0.84160000  0.21865000  1
  O  O134  1  0.41380000  0.65260000  0.83500000  1
  O  O135  1  0.41380000  0.84740000  0.33500000  1
  O  O136  1  0.58620000  0.15260000  0.66500000  1
  O  O137  1  0.58620000  0.34740000  0.16500000  1
  O  O138  1  0.61160000  0.15840000  0.78135000  1
  O  O139  1  0.61160000  0.34160000  0.28135000  1
  O  O140  1  0.71330000  0.63290000  0.84088000  1
  O  O141  1  0.71330000  0.86710000  0.34088000  1
  O  O142  1  0.73010000  0.72280000  0.93590000  1
  O  O143  1  0.73010000  0.77720000  0.43590000  1
  O  O144  1  0.78400000  0.07640000  0.37866000  1
  O  O145  1  0.78400000  0.42360000  0.87866000  1
  O  O146  1  0.80410000  0.56090000  0.17603000  1
  O  O147  1  0.80410000  0.93910000  0.67603000  1
  O  O148  1  0.89930000  0.52390000  0.28413000  1
  O  O149  1  0.89930000  0.97610000  0.78413000  1
  O  O150  1  0.92030000  0.06100000  0.51863000  1
  O  O151  1  0.92030000  0.43900000  0.01863000  1
  O  O152  1  0.94250000  0.50830000  0.84891000  1
  O  O153  1  0.94250000  0.99170000  0.34891000  1
  O  O154  1  0.99710000  0.69130000  0.92905000  1
  O  O155  1  0.99710000  0.80870000  0.42905000  1
