# generated using pymatgen
data_ZnH8C14NO6
_symmetry_space_group_name_H-M   'P 1'
_cell_length_a   10.89470000
_cell_length_b   10.97080000
_cell_length_c   13.98910000
_cell_angle_alpha   81.54000000
_cell_angle_beta   89.01600000
_cell_angle_gamma   87.65800000
_symmetry_Int_Tables_number   1
_chemical_formula_structural   ZnH8C14NO6
_chemical_formula_sum   'Zn4 H32 C56 N4 O24'
_cell_volume   1652.34678206
_cell_formula_units_Z   4
loop_
 _symmetry_equiv_pos_site_id
 _symmetry_equiv_pos_as_xyz
  1  'x, y, z'
loop_
 _atom_site_type_symbol
 _atom_site_label
 _atom_site_symmetry_multiplicity
 _atom_site_fract_x
 _atom_site_fract_y
 _atom_site_fract_z
 _atom_site_occupancy
  Zn  Zn0  1  0.27300000  0.33617000  0.39297000  1
  Zn  Zn1  1  0.27704000  0.37777000  0.18076000  1
  Zn  Zn2  1  0.72296000  0.62223000  0.81924000  1
  Zn  Zn3  1  0.72700000  0.66383000  0.60703000  1
  H  H4  1  0.09340000  0.37370000  0.86260000  1
  H  H5  1  0.09510000  0.31900000  0.72320000  1
  H  H6  1  0.09820000  0.31590000  0.56110000  1
  H  H7  1  0.10070000  0.39120000  0.02170000  1
  H  H8  1  0.12520000  0.64460000  0.57180000  1
  H  H9  1  0.20890000  0.79070000  0.94570000  1
  H  H10  1  0.21600000  0.65740000  0.00590000  1
  H  H11  1  0.21760000  0.72270000  0.41670000  1
  H  H12  1  0.21820000  0.92730000  0.42580000  1
  H  H13  1  0.33130000  0.65150000  0.57250000  1
  H  H14  1  0.36940000  0.92700000  0.99970000  1
  H  H15  1  0.45170000  0.35190000  0.54850000  1
  H  H16  1  0.45570000  0.36470000  0.01890000  1
  H  H17  1  0.45780000  0.35920000  0.70960000  1
  H  H18  1  0.46030000  0.34940000  0.86000000  1
  H  H19  1  0.48560000  0.90220000  0.06630000  1
  H  H20  1  0.51440000  0.09780000  0.93370000  1
  H  H21  1  0.53970000  0.65060000  0.14000000  1
  H  H22  1  0.54220000  0.64080000  0.29040000  1
  H  H23  1  0.54430000  0.63530000  0.98110000  1
  H  H24  1  0.54830000  0.64810000  0.45150000  1
  H  H25  1  0.63060000  0.07300000  0.00030000  1
  H  H26  1  0.66870000  0.34850000  0.42750000  1
  H  H27  1  0.78180000  0.07270000  0.57420000  1
  H  H28  1  0.78240000  0.27730000  0.58330000  1
  H  H29  1  0.78400000  0.34260000  0.99410000  1
  H  H30  1  0.79110000  0.20930000  0.05430000  1
  H  H31  1  0.87480000  0.35540000  0.42820000  1
  H  H32  1  0.89930000  0.60880000  0.97830000  1
  H  H33  1  0.90180000  0.68410000  0.43890000  1
  H  H34  1  0.90490000  0.68100000  0.27680000  1
  H  H35  1  0.90660000  0.62630000  0.13740000  1
  C  C36  1  0.04210000  0.35810000  0.28710000  1
  C  C37  1  0.09410000  0.65320000  0.71390000  1
  C  C38  1  0.15620000  0.66400000  0.79680000  1
  C  C39  1  0.16450000  0.64980000  0.62950000  1
  C  C40  1  0.16900000  0.37050000  0.89290000  1
  C  C41  1  0.16910000  0.32770000  0.68910000  1
  C  C42  1  0.17190000  0.32410000  0.59170000  1
  C  C43  1  0.17420000  0.38090000  0.98860000  1
  C  C44  1  0.21490000  0.70330000  0.94110000  1
  C  C45  1  0.24100000  0.77640000  0.36240000  1
  C  C46  1  0.24150000  0.90080000  0.36770000  1
  C  C47  1  0.27380000  0.59310000  0.27660000  1
  C  C48  1  0.27410000  0.72850000  0.27920000  1
  C  C49  1  0.27480000  0.12210000  0.29740000  1
  C  C50  1  0.27480000  0.98770000  0.29130000  1
  C  C51  1  0.27590000  0.34430000  0.73690000  1
  C  C52  1  0.27640000  0.35500000  0.84090000  1
  C  C53  1  0.28460000  0.66850000  0.79620000  1
  C  C54  1  0.28820000  0.65380000  0.63020000  1
  C  C55  1  0.31000000  0.81370000  0.20170000  1
  C  C56  1  0.31060000  0.93960000  0.20830000  1
  C  C57  1  0.35560000  0.66140000  0.71490000  1
  C  C58  1  0.37880000  0.34560000  0.58410000  1
  C  C59  1  0.38160000  0.36590000  0.98670000  1
  C  C60  1  0.38280000  0.35100000  0.68090000  1
  C  C61  1  0.38510000  0.35580000  0.89170000  1
  C  C62  1  0.39650000  0.90770000  0.06610000  1
  C  C63  1  0.48970000  0.65490000  0.71360000  1
  C  C64  1  0.51030000  0.34510000  0.28640000  1
  C  C65  1  0.60350000  0.09230000  0.93390000  1
  C  C66  1  0.61490000  0.64420000  0.10830000  1
  C  C67  1  0.61720000  0.64900000  0.31910000  1
  C  C68  1  0.61840000  0.63410000  0.01330000  1
  C  C69  1  0.62120000  0.65440000  0.41590000  1
  C  C70  1  0.64440000  0.33860000  0.28510000  1
  C  C71  1  0.68940000  0.06040000  0.79170000  1
  C  C72  1  0.69000000  0.18630000  0.79830000  1
  C  C73  1  0.71180000  0.34620000  0.36980000  1
  C  C74  1  0.71540000  0.33150000  0.20380000  1
  C  C75  1  0.72360000  0.64500000  0.15910000  1
  C  C76  1  0.72410000  0.65570000  0.26310000  1
  C  C77  1  0.72520000  0.01230000  0.70870000  1
  C  C78  1  0.72520000  0.87790000  0.70260000  1
  C  C79  1  0.72590000  0.27150000  0.72080000  1
  C  C80  1  0.72620000  0.40690000  0.72340000  1
  C  C81  1  0.75850000  0.09920000  0.63230000  1
  C  C82  1  0.75900000  0.22360000  0.63760000  1
  C  C83  1  0.78510000  0.29670000  0.05890000  1
  C  C84  1  0.82580000  0.61910000  0.01140000  1
  C  C85  1  0.82810000  0.67590000  0.40830000  1
  C  C86  1  0.83090000  0.67230000  0.31090000  1
  C  C87  1  0.83100000  0.62950000  0.10710000  1
  C  C88  1  0.83550000  0.35020000  0.37050000  1
  C  C89  1  0.84380000  0.33600000  0.20320000  1
  C  C90  1  0.90590000  0.34680000  0.28610000  1
  C  C91  1  0.95790000  0.64190000  0.71290000  1
  N  N92  1  0.27480000  0.33170000  0.53830000  1
  N  N93  1  0.27770000  0.37730000  0.03720000  1
  N  N94  1  0.72230000  0.62270000  0.96280000  1
  N  N95  1  0.72520000  0.66830000  0.46170000  1
  O  O96  1  0.09190000  0.33950000  0.36820000  1
  O  O97  1  0.09600000  0.38500000  0.20740000  1
  O  O98  1  0.11360000  0.66880000  0.88770000  1
  O  O99  1  0.26740000  0.52450000  0.35580000  1
  O  O100  1  0.27120000  0.19210000  0.22000000  1
  O  O101  1  0.27670000  0.15220000  0.37900000  1
  O  O102  1  0.28260000  0.55860000  0.19540000  1
  O  O103  1  0.32410000  0.67400000  0.88800000  1
  O  O104  1  0.34730000  0.79320000  0.11120000  1
  O  O105  1  0.35150000  0.00130000  0.12150000  1
  O  O106  1  0.45640000  0.33520000  0.36680000  1
  O  O107  1  0.45830000  0.35980000  0.20770000  1
  O  O108  1  0.54170000  0.64020000  0.79230000  1
  O  O109  1  0.54360000  0.66480000  0.63320000  1
  O  O110  1  0.64850000  0.99870000  0.87850000  1
  O  O111  1  0.65270000  0.20680000  0.88880000  1
  O  O112  1  0.67590000  0.32600000  0.11200000  1
  O  O113  1  0.71740000  0.44140000  0.80460000  1
  O  O114  1  0.72330000  0.84780000  0.62100000  1
  O  O115  1  0.72880000  0.80790000  0.78000000  1
  O  O116  1  0.73260000  0.47550000  0.64420000  1
  O  O117  1  0.88640000  0.33120000  0.11230000  1
  O  O118  1  0.90400000  0.61500000  0.79260000  1
  O  O119  1  0.90810000  0.66050000  0.63180000  1
