# generated using pymatgen
data_V6Zn3H56C52(N2O3)4
_symmetry_space_group_name_H-M   'P 1'
_cell_length_a   13.18970000
_cell_length_b   15.47250000
_cell_length_c   16.43800000
_cell_angle_alpha   90.00000000
_cell_angle_beta   90.00000000
_cell_angle_gamma   102.34500000
_symmetry_Int_Tables_number   1
_chemical_formula_structural   V6Zn3H56C52(N2O3)4
_chemical_formula_sum   'V12 Zn6 H112 C104 N16 O24'
_cell_volume   3277.06228753
_cell_formula_units_Z   2
loop_
 _symmetry_equiv_pos_site_id
 _symmetry_equiv_pos_as_xyz
  1  'x, y, z'
loop_
 _atom_site_type_symbol
 _atom_site_label
 _atom_site_symmetry_multiplicity
 _atom_site_fract_x
 _atom_site_fract_y
 _atom_site_fract_z
 _atom_site_occupancy
  V  V0  1  0.84037000  0.35190000  0.66658000  1
  V  V1  1  0.78198000  0.12255000  0.99580000  1
  V  V2  1  0.77440000  0.25315000  0.33974000  1
  V  V3  1  0.72560000  0.24685000  0.83974000  1
  V  V4  1  0.71802000  0.37745000  0.49580000  1
  V  V5  1  0.65963000  0.14810000  0.16658000  1
  V  V6  1  0.34037000  0.85190000  0.83342000  1
  V  V7  1  0.28198000  0.62255000  0.50420000  1
  V  V8  1  0.27440000  0.75315000  0.16026000  1
  V  V9  1  0.22560000  0.74685000  0.66026000  1
  V  V10  1  0.21802000  0.87745000  0.00420000  1
  V  V11  1  0.15963000  0.64810000  0.33342000  1
  Zn  Zn12  1  0.00000000  0.00000000  0.00000000  1
  Zn  Zn13  1  0.99027000  0.57205000  0.69508000  1
  Zn  Zn14  1  0.50973000  0.92795000  0.19508000  1
  Zn  Zn15  1  0.50000000  0.50000000  0.50000000  1
  Zn  Zn16  1  0.49027000  0.07205000  0.80492000  1
  Zn  Zn17  1  0.00973000  0.42795000  0.30492000  1
  H  H18  1  0.99370000  0.36520000  0.89270000  1
  H  H19  1  0.98990000  0.77350000  0.67360000  1
  H  H20  1  0.96940000  0.03650000  0.41670000  1
  H  H21  1  0.96530000  0.03720000  0.58180000  1
  H  H22  1  0.95600000  0.81830000  0.90900000  1
  H  H23  1  0.94450000  0.80330000  0.43060000  1
  H  H24  1  0.91640000  0.54990000  0.10660000  1
  H  H25  1  0.91200000  0.08810000  0.85160000  1
  H  H26  1  0.91130000  0.09110000  0.71180000  1
  H  H27  1  0.90710000  0.31540000  0.02200000  1
  H  H28  1  0.89160000  0.72440000  0.07790000  1
  H  H29  1  0.89150000  0.80940000  0.34620000  1
  H  H30  1  0.89060000  0.33380000  0.15800000  1
  H  H31  1  0.88980000  0.69050000  0.21900000  1
  H  H32  1  0.88920000  0.06570000  0.14800000  1
  H  H33  1  0.87830000  0.06100000  0.28660000  1
  H  H34  1  0.87760000  0.86620000  0.67180000  1
  H  H35  1  0.86650000  0.67900000  0.50500000  1
  H  H36  1  0.86530000  0.91520000  0.48130000  1
  H  H37  1  0.85350000  0.84160000  0.20900000  1
  H  H38  1  0.85320000  0.48660000  0.83550000  1
  H  H39  1  0.82890000  0.50150000  0.97190000  1
  H  H40  1  0.82120000  0.70870000  0.86870000  1
  H  H41  1  0.81440000  0.92190000  0.39600000  1
  H  H42  1  0.80110000  0.64210000  0.06330000  1
  H  H43  1  0.79850000  0.60820000  0.20420000  1
  H  H44  1  0.77390000  0.92540000  0.04350000  1
  H  H45  1  0.76460000  0.57210000  0.71370000  1
  H  H46  1  0.73540000  0.92790000  0.21370000  1
  H  H47  1  0.72610000  0.57460000  0.54350000  1
  H  H48  1  0.70150000  0.89180000  0.70420000  1
  H  H49  1  0.69890000  0.85790000  0.56330000  1
  H  H50  1  0.68560000  0.57810000  0.89600000  1
  H  H51  1  0.67880000  0.79130000  0.36870000  1
  H  H52  1  0.67110000  0.99850000  0.47190000  1
  H  H53  1  0.64680000  0.01340000  0.33550000  1
  H  H54  1  0.64650000  0.65840000  0.70900000  1
  H  H55  1  0.63470000  0.58480000  0.98130000  1
  H  H56  1  0.63350000  0.82100000  0.00500000  1
  H  H57  1  0.62240000  0.63380000  0.17180000  1
  H  H58  1  0.62170000  0.43900000  0.78660000  1
  H  H59  1  0.61080000  0.43430000  0.64800000  1
  H  H60  1  0.61020000  0.80950000  0.71900000  1
  H  H61  1  0.60940000  0.16620000  0.65800000  1
  H  H62  1  0.60850000  0.69060000  0.84620000  1
  H  H63  1  0.60840000  0.77560000  0.57790000  1
  H  H64  1  0.59290000  0.18460000  0.52200000  1
  H  H65  1  0.58870000  0.40890000  0.21180000  1
  H  H66  1  0.58800000  0.41190000  0.35160000  1
  H  H67  1  0.58360000  0.95010000  0.60660000  1
  H  H68  1  0.55550000  0.69670000  0.93060000  1
  H  H69  1  0.54400000  0.68170000  0.40900000  1
  H  H70  1  0.53470000  0.46280000  0.08180000  1
  H  H71  1  0.53060000  0.46350000  0.91670000  1
  H  H72  1  0.51010000  0.72650000  0.17360000  1
  H  H73  1  0.50630000  0.13480000  0.39270000  1
  H  H74  1  0.49370000  0.86520000  0.60730000  1
  H  H75  1  0.48990000  0.27350000  0.82640000  1
  H  H76  1  0.46940000  0.53650000  0.08330000  1
  H  H77  1  0.46530000  0.53720000  0.91820000  1
  H  H78  1  0.45600000  0.31830000  0.59100000  1
  H  H79  1  0.44450000  0.30330000  0.06940000  1
  H  H80  1  0.41640000  0.04990000  0.39340000  1
  H  H81  1  0.41200000  0.58810000  0.64840000  1
  H  H82  1  0.41130000  0.59110000  0.78820000  1
  H  H83  1  0.40710000  0.81540000  0.47800000  1
  H  H84  1  0.39160000  0.22440000  0.42210000  1
  H  H85  1  0.39150000  0.30940000  0.15380000  1
  H  H86  1  0.39060000  0.83380000  0.34200000  1
  H  H87  1  0.38980000  0.19050000  0.28100000  1
  H  H88  1  0.38920000  0.56570000  0.35200000  1
  H  H89  1  0.37830000  0.56100000  0.21340000  1
  H  H90  1  0.37760000  0.36620000  0.82820000  1
  H  H91  1  0.36650000  0.17900000  0.99500000  1
  H  H92  1  0.36530000  0.41520000  0.01870000  1
  H  H93  1  0.35350000  0.34160000  0.29100000  1
  H  H94  1  0.35320000  0.98660000  0.66450000  1
  H  H95  1  0.32890000  0.00150000  0.52810000  1
  H  H96  1  0.32120000  0.20870000  0.63130000  1
  H  H97  1  0.31440000  0.42190000  0.10400000  1
  H  H98  1  0.30110000  0.14210000  0.43670000  1
  H  H99  1  0.29850000  0.10820000  0.29580000  1
  H  H100  1  0.27390000  0.42540000  0.45650000  1
  H  H101  1  0.26460000  0.07210000  0.78630000  1
  H  H102  1  0.23540000  0.42790000  0.28630000  1
  H  H103  1  0.22610000  0.07460000  0.95650000  1
  H  H104  1  0.20150000  0.39180000  0.79580000  1
  H  H105  1  0.19890000  0.35790000  0.93670000  1
  H  H106  1  0.18560000  0.07810000  0.60400000  1
  H  H107  1  0.17880000  0.29130000  0.13130000  1
  H  H108  1  0.17110000  0.49850000  0.02810000  1
  H  H109  1  0.14680000  0.51340000  0.16450000  1
  H  H110  1  0.14650000  0.15840000  0.79100000  1
  H  H111  1  0.13470000  0.08480000  0.51870000  1
  H  H112  1  0.13350000  0.32100000  0.49500000  1
  H  H113  1  0.12240000  0.13380000  0.32820000  1
  H  H114  1  0.12170000  0.93900000  0.71340000  1
  H  H115  1  0.11080000  0.93430000  0.85200000  1
  H  H116  1  0.11020000  0.30950000  0.78100000  1
  H  H117  1  0.10940000  0.66620000  0.84200000  1
  H  H118  1  0.10850000  0.19060000  0.65380000  1
  H  H119  1  0.10840000  0.27560000  0.92210000  1
  H  H120  1  0.09290000  0.68460000  0.97800000  1
  H  H121  1  0.08870000  0.90890000  0.28820000  1
  H  H122  1  0.08800000  0.91190000  0.14840000  1
  H  H123  1  0.08360000  0.45010000  0.89340000  1
  H  H124  1  0.05550000  0.19670000  0.56940000  1
  H  H125  1  0.04400000  0.18170000  0.09100000  1
  H  H126  1  0.03470000  0.96280000  0.41820000  1
  H  H127  1  0.03060000  0.96350000  0.58330000  1
  H  H128  1  0.01010000  0.22650000  0.32640000  1
  H  H129  1  0.00630000  0.63480000  0.10730000  1
  C  C130  1  0.98160000  0.98290000  0.30490000  1
  C  C131  1  0.97320000  0.97870000  0.39580000  1
  C  C132  1  0.95850000  0.59570000  0.99240000  1
  C  C133  1  0.95750000  0.35610000  0.04970000  1
  C  C134  1  0.95420000  0.06020000  0.73900000  1
  C  C135  1  0.95400000  0.05710000  0.82340000  1
  C  C136  1  0.94770000  0.36780000  0.13150000  1
  C  C137  1  0.94100000  0.60740000  0.08170000  1
  C  C138  1  0.92850000  0.03240000  0.17640000  1
  C  C139  1  0.92220000  0.03050000  0.26000000  1
  C  C140  1  0.91960000  0.74990000  0.68180000  1
  C  C141  1  0.90210000  0.52710000  0.86460000  1
  C  C142  1  0.88980000  0.81910000  0.92810000  1
  C  C143  1  0.88700000  0.53580000  0.94680000  1
  C  C144  1  0.88290000  0.81500000  0.40440000  1
  C  C145  1  0.87490000  0.90940000  0.42320000  1
  C  C146  1  0.86230000  0.66460000  0.09600000  1
  C  C147  1  0.85240000  0.80600000  0.68020000  1
  C  C148  1  0.82970000  0.66730000  0.18540000  1
  C  C149  1  0.80950000  0.75300000  0.90340000  1
  C  C150  1  0.80140000  0.68090000  0.48410000  1
  C  C151  1  0.79100000  0.74670000  0.43120000  1
  C  C152  1  0.78810000  0.63240000  0.70460000  1
  C  C153  1  0.78350000  0.81600000  0.20260000  1
  C  C154  1  0.78340000  0.88220000  0.00660000  1
  C  C155  1  0.75260000  0.72620000  0.19110000  1
  C  C156  1  0.74740000  0.77380000  0.69110000  1
  C  C157  1  0.71660000  0.61780000  0.50660000  1
  C  C158  1  0.71650000  0.68400000  0.70260000  1
  C  C159  1  0.71190000  0.86760000  0.20460000  1
  C  C160  1  0.70900000  0.75330000  0.93120000  1
  C  C161  1  0.69860000  0.81910000  0.98410000  1
  C  C162  1  0.69050000  0.74700000  0.40340000  1
  C  C163  1  0.67030000  0.83270000  0.68540000  1
  C  C164  1  0.64760000  0.69400000  0.18020000  1
  C  C165  1  0.63770000  0.83540000  0.59600000  1
  C  C166  1  0.62510000  0.59060000  0.92320000  1
  C  C167  1  0.61710000  0.68500000  0.90440000  1
  C  C168  1  0.61300000  0.96420000  0.44680000  1
  C  C169  1  0.61020000  0.68090000  0.42810000  1
  C  C170  1  0.59790000  0.97290000  0.36460000  1
  C  C171  1  0.58040000  0.75010000  0.18180000  1
  C  C172  1  0.57780000  0.46950000  0.76000000  1
  C  C173  1  0.57150000  0.46760000  0.67640000  1
  C  C174  1  0.55900000  0.89260000  0.58170000  1
  C  C175  1  0.55230000  0.13220000  0.63150000  1
  C  C176  1  0.54600000  0.44290000  0.32340000  1
  C  C177  1  0.54580000  0.43980000  0.23900000  1
  C  C178  1  0.54250000  0.14390000  0.54970000  1
  C  C179  1  0.54150000  0.90430000  0.49240000  1
  C  C180  1  0.52680000  0.52130000  0.89580000  1
  C  C181  1  0.51840000  0.51710000  0.80490000  1
  C  C182  1  0.48160000  0.48290000  0.19510000  1
  C  C183  1  0.47320000  0.47870000  0.10420000  1
  C  C184  1  0.45850000  0.09570000  0.50760000  1
  C  C185  1  0.45750000  0.85610000  0.45030000  1
  C  C186  1  0.45420000  0.56020000  0.76100000  1
  C  C187  1  0.45400000  0.55710000  0.67660000  1
  C  C188  1  0.44770000  0.86780000  0.36850000  1
  C  C189  1  0.44100000  0.10740000  0.41830000  1
  C  C190  1  0.42850000  0.53240000  0.32360000  1
  C  C191  1  0.42220000  0.53050000  0.24000000  1
  C  C192  1  0.41960000  0.24990000  0.81820000  1
  C  C193  1  0.40210000  0.02710000  0.63540000  1
  C  C194  1  0.38980000  0.31910000  0.57190000  1
  C  C195  1  0.38700000  0.03580000  0.55320000  1
  C  C196  1  0.38290000  0.31500000  0.09560000  1
  C  C197  1  0.37490000  0.40940000  0.07680000  1
  C  C198  1  0.36230000  0.16460000  0.40400000  1
  C  C199  1  0.35240000  0.30600000  0.81980000  1
  C  C200  1  0.32970000  0.16730000  0.31460000  1
  C  C201  1  0.30950000  0.25300000  0.59660000  1
  C  C202  1  0.30140000  0.18090000  0.01590000  1
  C  C203  1  0.29100000  0.24670000  0.06880000  1
  C  C204  1  0.28810000  0.13240000  0.79540000  1
  C  C205  1  0.28350000  0.31600000  0.29740000  1
  C  C206  1  0.28340000  0.38220000  0.49340000  1
  C  C207  1  0.25260000  0.22620000  0.30890000  1
  C  C208  1  0.24740000  0.27380000  0.80890000  1
  C  C209  1  0.21660000  0.11780000  0.99340000  1
  C  C210  1  0.21650000  0.18400000  0.79740000  1
  C  C211  1  0.21190000  0.36760000  0.29540000  1
  C  C212  1  0.20900000  0.25330000  0.56880000  1
  C  C213  1  0.19860000  0.31910000  0.51590000  1
  C  C214  1  0.19050000  0.24700000  0.09660000  1
  C  C215  1  0.17030000  0.33270000  0.81460000  1
  C  C216  1  0.14760000  0.19400000  0.31980000  1
  C  C217  1  0.13770000  0.33540000  0.90400000  1
  C  C218  1  0.12510000  0.09060000  0.57680000  1
  C  C219  1  0.11710000  0.18500000  0.59560000  1
  C  C220  1  0.11300000  0.46420000  0.05320000  1
  C  C221  1  0.11020000  0.18090000  0.07190000  1
  C  C222  1  0.09790000  0.47290000  0.13540000  1
  C  C223  1  0.08040000  0.25010000  0.31820000  1
  C  C224  1  0.07780000  0.96950000  0.74000000  1
  C  C225  1  0.07150000  0.96760000  0.82360000  1
  C  C226  1  0.05900000  0.39260000  0.91830000  1
  C  C227  1  0.05230000  0.63220000  0.86850000  1
  C  C228  1  0.04600000  0.94290000  0.17660000  1
  C  C229  1  0.04580000  0.93980000  0.26100000  1
  C  C230  1  0.04250000  0.64390000  0.95030000  1
  C  C231  1  0.04150000  0.40430000  0.00760000  1
  C  C232  1  0.02680000  0.02130000  0.60420000  1
  C  C233  1  0.01840000  0.01710000  0.69510000  1
  N  N234  1  0.98830000  0.98890000  0.13370000  1
  N  N235  1  0.98400000  0.57440000  0.82450000  1
  N  N236  1  0.88940000  0.66280000  0.69450000  1
  N  N237  1  0.87890000  0.88530000  0.97870000  1
  N  N238  1  0.62110000  0.61470000  0.47870000  1
  N  N239  1  0.61060000  0.83720000  0.19450000  1
  N  N240  1  0.51600000  0.92560000  0.32450000  1
  N  N241  1  0.51170000  0.51110000  0.63370000  1
  N  N242  1  0.48830000  0.48890000  0.36630000  1
  N  N243  1  0.48400000  0.07440000  0.67550000  1
  N  N244  1  0.38940000  0.16280000  0.80550000  1
  N  N245  1  0.37890000  0.38530000  0.52130000  1
  N  N246  1  0.12110000  0.11470000  0.02130000  1
  N  N247  1  0.11060000  0.33720000  0.30550000  1
  N  N248  1  0.01600000  0.42560000  0.17550000  1
  N  N249  1  0.01170000  0.01110000  0.86630000  1
  O  O250  1  0.88700000  0.07950000  0.00119000  1
  O  O251  1  0.87680000  0.32940000  0.31380000  1
  O  O252  1  0.86610000  0.45800000  0.69195000  1
  O  O253  1  0.80370000  0.28160000  0.75190000  1
  O  O254  1  0.79870000  0.20280000  0.91664000  1
  O  O255  1  0.76290000  0.16990000  0.09212000  1
  O  O256  1  0.73710000  0.33010000  0.59212000  1
  O  O257  1  0.70130000  0.29720000  0.41664000  1
  O  O258  1  0.69630000  0.21840000  0.25190000  1
  O  O259  1  0.63390000  0.04200000  0.19195000  1
  O  O260  1  0.62320000  0.17060000  0.81380000  1
  O  O261  1  0.61300000  0.42050000  0.50119000  1
  O  O262  1  0.38700000  0.57950000  0.49881000  1
  O  O263  1  0.37680000  0.82940000  0.18620000  1
  O  O264  1  0.36610000  0.95800000  0.80805000  1
  O  O265  1  0.30370000  0.78160000  0.74810000  1
  O  O266  1  0.29870000  0.70280000  0.58336000  1
  O  O267  1  0.26290000  0.66990000  0.40788000  1
  O  O268  1  0.23710000  0.83010000  0.90788000  1
  O  O269  1  0.20130000  0.79720000  0.08336000  1
  O  O270  1  0.19630000  0.71840000  0.24810000  1
  O  O271  1  0.13390000  0.54200000  0.30805000  1
  O  O272  1  0.12320000  0.67060000  0.68620000  1
  O  O273  1  0.11300000  0.92050000  0.99881000  1
