# generated using pymatgen
data_Nd2H24C26O17
_symmetry_space_group_name_H-M   'P 1'
_cell_length_a   12.36800000
_cell_length_b   12.86500000
_cell_length_c   24.16200000
_cell_angle_alpha   90.00000000
_cell_angle_beta   90.00000000
_cell_angle_gamma   90.00000000
_symmetry_Int_Tables_number   1
_chemical_formula_structural   Nd2H24C26O17
_chemical_formula_sum   'Nd8 H96 C104 O68'
_cell_volume   3844.52019984
_cell_formula_units_Z   4
loop_
 _symmetry_equiv_pos_site_id
 _symmetry_equiv_pos_as_xyz
  1  'x, y, z'
loop_
 _atom_site_type_symbol
 _atom_site_label
 _atom_site_symmetry_multiplicity
 _atom_site_fract_x
 _atom_site_fract_y
 _atom_site_fract_z
 _atom_site_occupancy
  Nd  Nd0  1  0.56045000  0.10271000  0.43188000  1
  Nd  Nd1  1  0.76884000  0.12416000  0.91814000  1
  Nd  Nd2  1  0.23116000  0.37584000  0.41814000  1
  Nd  Nd3  1  0.43955000  0.39729000  0.93188000  1
  Nd  Nd4  1  0.43955000  0.60271000  0.06812000  1
  Nd  Nd5  1  0.23116000  0.62416000  0.58186000  1
  Nd  Nd6  1  0.76884000  0.87584000  0.08186000  1
  Nd  Nd7  1  0.56045000  0.89729000  0.56812000  1
  H  H8  1  0.39030000  0.00000000  0.00000000  1
  H  H9  1  0.20130000  1.00000000  0.50000000  1
  H  H10  1  0.33260000  0.00390000  0.66950000  1
  H  H11  1  0.40500000  0.00990000  0.18300000  1
  H  H12  1  0.44400000  0.01820000  0.08840000  1
  H  H13  1  0.91970000  0.02670000  0.41770000  1
  H  H14  1  0.10750000  0.04440000  0.92060000  1
  H  H15  1  0.51620000  0.04520000  0.82760000  1
  H  H16  1  0.21660000  0.04780000  0.68130000  1
  H  H17  1  0.25290000  0.04940000  0.58540000  1
  H  H18  1  0.23720000  0.07250000  0.31740000  1
  H  H19  1  0.41160000  0.11180000  0.81830000  1
  H  H20  1  0.67110000  0.12700000  0.82760000  1
  H  H21  1  0.95600000  0.17300000  0.09970000  1
  H  H22  1  0.74280000  0.18110000  0.25060000  1
  H  H23  1  0.24290000  0.18870000  0.08080000  1
  H  H24  1  0.77000000  0.19100000  0.58880000  1
  H  H25  1  0.41740000  0.19520000  0.24510000  1
  H  H26  1  0.05260000  0.20550000  0.60010000  1
  H  H27  1  0.23500000  0.21180000  0.58130000  1
  H  H28  1  0.43040000  0.21490000  0.06590000  1
  H  H29  1  0.66980000  0.22060000  0.80040000  1
  H  H30  1  0.93390000  0.23320000  0.04440000  1
  H  H31  1  0.73400000  0.23560000  0.53140000  1
  H  H32  1  0.59290000  0.24440000  0.10580000  1
  H  H33  1  0.40710000  0.25560000  0.60580000  1
  H  H34  1  0.26600000  0.26440000  0.03140000  1
  H  H35  1  0.06610000  0.26680000  0.54440000  1
  H  H36  1  0.33020000  0.27940000  0.30040000  1
  H  H37  1  0.56960000  0.28510000  0.56590000  1
  H  H38  1  0.76500000  0.28820000  0.08130000  1
  H  H39  1  0.94740000  0.29450000  0.10010000  1
  H  H40  1  0.58260000  0.30480000  0.74510000  1
  H  H41  1  0.23000000  0.30900000  0.08880000  1
  H  H42  1  0.75710000  0.31130000  0.58080000  1
  H  H43  1  0.25720000  0.31890000  0.75060000  1
  H  H44  1  0.04400000  0.32700000  0.59970000  1
  H  H45  1  0.32890000  0.37300000  0.32760000  1
  H  H46  1  0.58840000  0.38820000  0.31830000  1
  H  H47  1  0.76280000  0.42750000  0.81740000  1
  H  H48  1  0.74710000  0.45060000  0.08540000  1
  H  H49  1  0.78340000  0.45220000  0.18130000  1
  H  H50  1  0.48380000  0.45480000  0.32760000  1
  H  H51  1  0.89250000  0.45560000  0.42060000  1
  H  H52  1  0.08030000  0.47330000  0.91770000  1
  H  H53  1  0.55600000  0.48180000  0.58840000  1
  H  H54  1  0.59500000  0.49010000  0.68300000  1
  H  H55  1  0.66740000  0.49610000  0.16950000  1
  H  H56  1  0.79870000  0.50000000  0.00000000  1
  H  H57  1  0.60970000  0.50000000  0.50000000  1
  H  H58  1  0.66740000  0.50390000  0.83050000  1
  H  H59  1  0.59500000  0.50990000  0.31700000  1
  H  H60  1  0.55600000  0.51820000  0.41160000  1
  H  H61  1  0.08030000  0.52670000  0.08230000  1
  H  H62  1  0.89250000  0.54440000  0.57940000  1
  H  H63  1  0.48380000  0.54520000  0.67240000  1
  H  H64  1  0.78340000  0.54780000  0.81870000  1
  H  H65  1  0.74710000  0.54940000  0.91460000  1
  H  H66  1  0.76280000  0.57250000  0.18260000  1
  H  H67  1  0.58840000  0.61180000  0.68170000  1
  H  H68  1  0.32890000  0.62700000  0.67240000  1
  H  H69  1  0.04400000  0.67300000  0.40030000  1
  H  H70  1  0.25720000  0.68110000  0.24940000  1
  H  H71  1  0.75710000  0.68870000  0.41920000  1
  H  H72  1  0.23000000  0.69100000  0.91120000  1
  H  H73  1  0.58260000  0.69520000  0.25490000  1
  H  H74  1  0.94740000  0.70550000  0.89990000  1
  H  H75  1  0.76500000  0.71180000  0.91870000  1
  H  H76  1  0.56960000  0.71490000  0.43410000  1
  H  H77  1  0.33020000  0.72060000  0.69960000  1
  H  H78  1  0.06610000  0.73320000  0.45560000  1
  H  H79  1  0.26600000  0.73560000  0.96860000  1
  H  H80  1  0.40710000  0.74440000  0.39420000  1
  H  H81  1  0.59290000  0.75560000  0.89420000  1
  H  H82  1  0.73400000  0.76440000  0.46860000  1
  H  H83  1  0.93390000  0.76680000  0.95560000  1
  H  H84  1  0.66980000  0.77940000  0.19960000  1
  H  H85  1  0.43040000  0.78510000  0.93410000  1
  H  H86  1  0.23500000  0.78820000  0.41870000  1
  H  H87  1  0.05260000  0.79450000  0.39990000  1
  H  H88  1  0.41740000  0.80480000  0.75490000  1
  H  H89  1  0.77000000  0.80900000  0.41120000  1
  H  H90  1  0.24290000  0.81130000  0.91920000  1
  H  H91  1  0.74280000  0.81890000  0.74940000  1
  H  H92  1  0.95600000  0.82700000  0.90030000  1
  H  H93  1  0.67110000  0.87300000  0.17240000  1
  H  H94  1  0.41160000  0.88820000  0.18170000  1
  H  H95  1  0.23720000  0.92750000  0.68260000  1
  H  H96  1  0.25290000  0.95060000  0.41460000  1
  H  H97  1  0.21660000  0.95220000  0.31870000  1
  H  H98  1  0.51620000  0.95480000  0.17240000  1
  H  H99  1  0.10750000  0.95560000  0.07940000  1
  H  H100  1  0.91970000  0.97330000  0.58230000  1
  H  H101  1  0.44400000  0.98180000  0.91160000  1
  H  H102  1  0.40500000  0.99010000  0.81700000  1
  H  H103  1  0.33260000  0.99610000  0.33050000  1
  C  C104  1  0.09020000  0.00000000  0.00000000  1
  C  C105  1  0.31520000  0.00000000  0.00000000  1
  C  C106  1  0.96940000  0.00000000  0.00000000  1
  C  C107  1  0.12610000  1.00000000  0.50000000  1
  C  C108  1  0.78020000  1.00000000  0.50000000  1
  C  C109  1  0.90100000  1.00000000  0.50000000  1
  C  C110  1  0.25660000  0.00830000  0.33510000  1
  C  C111  1  0.06850000  0.01280000  0.45150000  1
  C  C112  1  0.23020000  0.01480000  0.39610000  1
  C  C113  1  0.95680000  0.01520000  0.45060000  1
  C  C114  1  0.14540000  0.02660000  0.95250000  1
  C  C115  1  0.25800000  0.02670000  0.95240000  1
  C  C116  1  0.41780000  0.04760000  0.89610000  1
  C  C117  1  0.43970000  0.04880000  0.83400000  1
  C  C118  1  0.28550000  0.10500000  0.42180000  1
  C  C119  1  0.56970000  0.12710000  0.58070000  1
  C  C120  1  0.75320000  0.13390000  0.06270000  1
  C  C121  1  0.47820000  0.13900000  0.92480000  1
  C  C122  1  0.57470000  0.16090000  0.31710000  1
  C  C123  1  0.57930000  0.18670000  0.25660000  1
  C  C124  1  0.67950000  0.19130000  0.23050000  1
  C  C125  1  0.48400000  0.20030000  0.22740000  1
  C  C126  1  0.68380000  0.21150000  0.17320000  1
  C  C127  1  0.49030000  0.22220000  0.17010000  1
  C  C128  1  0.80000000  0.22390000  0.09360000  1
  C  C129  1  0.58960000  0.22870000  0.14330000  1
  C  C130  1  0.92030000  0.23190000  0.08350000  1
  C  C131  1  0.61290000  0.23700000  0.58820000  1
  C  C132  1  0.72890000  0.24440000  0.57070000  1
  C  C133  1  0.27110000  0.25560000  0.07070000  1
  C  C134  1  0.38710000  0.26300000  0.08820000  1
  C  C135  1  0.07970000  0.26810000  0.58350000  1
  C  C136  1  0.41040000  0.27130000  0.64330000  1
  C  C137  1  0.20000000  0.27610000  0.59360000  1
  C  C138  1  0.50970000  0.27780000  0.67010000  1
  C  C139  1  0.31620000  0.28850000  0.67320000  1
  C  C140  1  0.51600000  0.29970000  0.72740000  1
  C  C141  1  0.32050000  0.30870000  0.73050000  1
  C  C142  1  0.42070000  0.31330000  0.75660000  1
  C  C143  1  0.42530000  0.33910000  0.81710000  1
  C  C144  1  0.52180000  0.36100000  0.42480000  1
  C  C145  1  0.24680000  0.36610000  0.56270000  1
  C  C146  1  0.43030000  0.37290000  0.08070000  1
  C  C147  1  0.71450000  0.39500000  0.92180000  1
  C  C148  1  0.56030000  0.45120000  0.33400000  1
  C  C149  1  0.58220000  0.45240000  0.39610000  1
  C  C150  1  0.74200000  0.47330000  0.45240000  1
  C  C151  1  0.85460000  0.47340000  0.45250000  1
  C  C152  1  0.04320000  0.48480000  0.95060000  1
  C  C153  1  0.76980000  0.48520000  0.89610000  1
  C  C154  1  0.93150000  0.48720000  0.95150000  1
  C  C155  1  0.74340000  0.49170000  0.83510000  1
  C  C156  1  0.09900000  0.50000000  0.00000000  1
  C  C157  1  0.21980000  0.50000000  0.00000000  1
  C  C158  1  0.87390000  0.50000000  0.00000000  1
  C  C159  1  0.03060000  0.50000000  0.50000000  1
  C  C160  1  0.68480000  0.50000000  0.50000000  1
  C  C161  1  0.90980000  0.50000000  0.50000000  1
  C  C162  1  0.74340000  0.50830000  0.16490000  1
  C  C163  1  0.93150000  0.51280000  0.04850000  1
  C  C164  1  0.76980000  0.51480000  0.10390000  1
  C  C165  1  0.04320000  0.51520000  0.04940000  1
  C  C166  1  0.85460000  0.52660000  0.54750000  1
  C  C167  1  0.74200000  0.52670000  0.54760000  1
  C  C168  1  0.58220000  0.54760000  0.60390000  1
  C  C169  1  0.56030000  0.54880000  0.66600000  1
  C  C170  1  0.71450000  0.60500000  0.07820000  1
  C  C171  1  0.43030000  0.62710000  0.91930000  1
  C  C172  1  0.24680000  0.63390000  0.43730000  1
  C  C173  1  0.52180000  0.63900000  0.57520000  1
  C  C174  1  0.42530000  0.66090000  0.18290000  1
  C  C175  1  0.42070000  0.68670000  0.24340000  1
  C  C176  1  0.32050000  0.69130000  0.26950000  1
  C  C177  1  0.51600000  0.70030000  0.27260000  1
  C  C178  1  0.31620000  0.71150000  0.32680000  1
  C  C179  1  0.50970000  0.72220000  0.32990000  1
  C  C180  1  0.20000000  0.72390000  0.40640000  1
  C  C181  1  0.41040000  0.72870000  0.35670000  1
  C  C182  1  0.07970000  0.73190000  0.41650000  1
  C  C183  1  0.38710000  0.73700000  0.91180000  1
  C  C184  1  0.27110000  0.74440000  0.92930000  1
  C  C185  1  0.72890000  0.75560000  0.42930000  1
  C  C186  1  0.61290000  0.76300000  0.41180000  1
  C  C187  1  0.92030000  0.76810000  0.91650000  1
  C  C188  1  0.58960000  0.77130000  0.85670000  1
  C  C189  1  0.80000000  0.77610000  0.90640000  1
  C  C190  1  0.49030000  0.77780000  0.82990000  1
  C  C191  1  0.68380000  0.78850000  0.82680000  1
  C  C192  1  0.48400000  0.79970000  0.77260000  1
  C  C193  1  0.67950000  0.80870000  0.76950000  1
  C  C194  1  0.57930000  0.81330000  0.74340000  1
  C  C195  1  0.57470000  0.83910000  0.68290000  1
  C  C196  1  0.47820000  0.86100000  0.07520000  1
  C  C197  1  0.75320000  0.86610000  0.93730000  1
  C  C198  1  0.56970000  0.87290000  0.41930000  1
  C  C199  1  0.28550000  0.89500000  0.57820000  1
  C  C200  1  0.43970000  0.95120000  0.16600000  1
  C  C201  1  0.41780000  0.95240000  0.10390000  1
  C  C202  1  0.25800000  0.97330000  0.04760000  1
  C  C203  1  0.14540000  0.97340000  0.04750000  1
  C  C204  1  0.95680000  0.98480000  0.54940000  1
  C  C205  1  0.23020000  0.98520000  0.60390000  1
  C  C206  1  0.06850000  0.98720000  0.54850000  1
  C  C207  1  0.25660000  0.99170000  0.66490000  1
  O  O208  1  0.11560000  0.02500000  0.39960000  1
  O  O209  1  0.92270000  0.04300000  0.96070000  1
  O  O210  1  0.73240000  0.04630000  0.46060000  1
  O  O211  1  0.30420000  0.05290000  0.90300000  1
  O  O212  1  0.72890000  0.05550000  0.08680000  1
  O  O213  1  0.56970000  0.06630000  0.62026000  1
  O  O214  1  0.37680000  0.08640000  0.44170000  1
  O  O215  1  0.54490000  0.09820000  0.53241000  1
  O  O216  1  0.57680000  0.12980000  0.92760000  1
  O  O217  1  0.65870000  0.13820000  0.34290000  1
  O  O218  1  0.74500000  0.15320000  0.01080000  1
  O  O219  1  0.48470000  0.16740000  0.34139000  1
  O  O220  1  0.24260000  0.18880000  0.42200000  1
  O  O221  1  0.69240000  0.18970000  0.82920000  1
  O  O222  1  0.78610000  0.21310000  0.15180000  1
  O  O223  1  0.42270000  0.21430000  0.94040000  1
  O  O224  1  0.39200000  0.23190000  0.14520000  1
  O  O225  1  0.60800000  0.26810000  0.64520000  1
  O  O226  1  0.57730000  0.28570000  0.44040000  1
  O  O227  1  0.21390000  0.28690000  0.65180000  1
  O  O228  1  0.30760000  0.31030000  0.32920000  1
  O  O229  1  0.75740000  0.31120000  0.92200000  1
  O  O230  1  0.51530000  0.33260000  0.84139000  1
  O  O231  1  0.25500000  0.34680000  0.51080000  1
  O  O232  1  0.34130000  0.36180000  0.84290000  1
  O  O233  1  0.42320000  0.37020000  0.42760000  1
  O  O234  1  0.45510000  0.40180000  0.03241000  1
  O  O235  1  0.62320000  0.41360000  0.94170000  1
  O  O236  1  0.43030000  0.43370000  0.12026000  1
  O  O237  1  0.27110000  0.44450000  0.58680000  1
  O  O238  1  0.69580000  0.44710000  0.40300000  1
  O  O239  1  0.26760000  0.45370000  0.96060000  1
  O  O240  1  0.07730000  0.45700000  0.46070000  1
  O  O241  1  0.88440000  0.47500000  0.89960000  1
  O  O242  1  0.88440000  0.52500000  0.10040000  1
  O  O243  1  0.07730000  0.54300000  0.53930000  1
  O  O244  1  0.26760000  0.54630000  0.03940000  1
  O  O245  1  0.69580000  0.55290000  0.59700000  1
  O  O246  1  0.27110000  0.55550000  0.41320000  1
  O  O247  1  0.43030000  0.56630000  0.87974000  1
  O  O248  1  0.62320000  0.58640000  0.05830000  1
  O  O249  1  0.45510000  0.59820000  0.96759000  1
  O  O250  1  0.42320000  0.62980000  0.57240000  1
  O  O251  1  0.34130000  0.63820000  0.15710000  1
  O  O252  1  0.25500000  0.65320000  0.48920000  1
  O  O253  1  0.51530000  0.66740000  0.15861000  1
  O  O254  1  0.75740000  0.68880000  0.07800000  1
  O  O255  1  0.30760000  0.68970000  0.67080000  1
  O  O256  1  0.21390000  0.71310000  0.34820000  1
  O  O257  1  0.57730000  0.71430000  0.55960000  1
  O  O258  1  0.60800000  0.73190000  0.35480000  1
  O  O259  1  0.39200000  0.76810000  0.85480000  1
  O  O260  1  0.42270000  0.78570000  0.05960000  1
  O  O261  1  0.78610000  0.78690000  0.84820000  1
  O  O262  1  0.69240000  0.81030000  0.17080000  1
  O  O263  1  0.24260000  0.81120000  0.57800000  1
  O  O264  1  0.48470000  0.83260000  0.65861000  1
  O  O265  1  0.74500000  0.84680000  0.98920000  1
  O  O266  1  0.65870000  0.86180000  0.65710000  1
  O  O267  1  0.57680000  0.87020000  0.07240000  1
  O  O268  1  0.54490000  0.90180000  0.46759000  1
  O  O269  1  0.37680000  0.91360000  0.55830000  1
  O  O270  1  0.56970000  0.93370000  0.37974000  1
  O  O271  1  0.72890000  0.94450000  0.91320000  1
  O  O272  1  0.30420000  0.94710000  0.09700000  1
  O  O273  1  0.73240000  0.95370000  0.53940000  1
  O  O274  1  0.92270000  0.95700000  0.03930000  1
  O  O275  1  0.11560000  0.97500000  0.60040000  1
