# generated using pymatgen
data_CoH10(C9O2)2
_symmetry_space_group_name_H-M   'P 1'
_cell_length_a   13.14300000
_cell_length_b   25.47200000
_cell_length_c   25.47200000
_cell_angle_alpha   120.00000000
_cell_angle_beta   90.00000000
_cell_angle_gamma   90.00000000
_symmetry_Int_Tables_number   1
_chemical_formula_structural   CoH10(C9O2)2
_chemical_formula_sum   'Co9 H90 C162 O36'
_cell_volume   7385.01244841
_cell_formula_units_Z   9
loop_
 _symmetry_equiv_pos_site_id
 _symmetry_equiv_pos_as_xyz
  1  'x, y, z'
loop_
 _atom_site_type_symbol
 _atom_site_label
 _atom_site_symmetry_multiplicity
 _atom_site_fract_x
 _atom_site_fract_y
 _atom_site_fract_z
 _atom_site_occupancy
  Co  Co0  1  0.00000000  1.00000000  0.31524000  1
  Co  Co1  1  0.14214000  0.38910000  0.11255000  1
  Co  Co2  1  0.19119000  0.11255000  0.38910000  1
  Co  Co3  1  0.33333333  0.31524000  1.00000000  1
  Co  Co4  1  0.47548000  0.72345000  0.61090000  1
  Co  Co5  1  0.52452000  0.27655000  0.88745000  1
  Co  Co6  1  0.66666667  0.68476000  0.68476000  1
  Co  Co7  1  0.80881000  0.88745000  0.27655000  1
  Co  Co8  1  0.85786000  0.61090000  0.72345000  1
  H  H9  1  0.01027000  0.84510000  0.57330000  1
  H  H10  1  0.03757000  0.68810000  0.04460000  1
  H  H11  1  0.04343000  0.24040000  0.37050000  1
  H  H12  1  0.07627000  0.75980000  0.74400000  1
  H  H13  1  0.08933000  0.12230000  0.64530000  1
  H  H14  1  0.09433000  0.19440000  0.80650000  1
  H  H15  1  0.12287000  0.04120000  0.81770000  1
  H  H16  1  0.12287000  0.89150000  0.12530000  1
  H  H17  1  0.12557000  0.93500000  0.74280000  1
  H  H18  1  0.12697000  0.95800000  0.43620000  1
  H  H19  1  0.13063000  0.12850000  0.56060000  1
  H  H20  1  0.13627000  0.83940000  0.73030000  1
  H  H21  1  0.14407000  0.00710000  0.63250000  1
  H  H22  1  0.15493000  0.26930000  0.89890000  1
  H  H23  1  0.15757000  0.52480000  0.96060000  1
  H  H24  1  0.17577000  0.96060000  0.52480000  1
  H  H25  1  0.17840000  0.89890000  0.26930000  1
  H  H26  1  0.18927000  0.63250000  0.00710000  1
  H  H27  1  0.19707000  0.73030000  0.83940000  1
  H  H28  1  0.20270000  0.56060000  0.12850000  1
  H  H29  1  0.20637000  0.43620000  0.95800000  1
  H  H30  1  0.20777000  0.74280000  0.93500000  1
  H  H31  1  0.21047000  0.12530000  0.89150000  1
  H  H32  1  0.21047000  0.81770000  0.04120000  1
  H  H33  1  0.23900000  0.80650000  0.19440000  1
  H  H34  1  0.24400000  0.64530000  0.12230000  1
  H  H35  1  0.25707000  0.74400000  0.75980000  1
  H  H36  1  0.28990000  0.37050000  0.24040000  1
  H  H37  1  0.29577000  0.04460000  0.68810000  1
  H  H38  1  0.32307000  0.57330000  0.84510000  1
  H  H39  1  0.34360000  0.72820000  0.15490000  1
  H  H40  1  0.37090000  0.35650000  0.31190000  1
  H  H41  1  0.37677000  0.13010000  0.75960000  1
  H  H42  1  0.40960000  0.98420000  0.24020000  1
  H  H43  1  0.42267000  0.52300000  0.87770000  1
  H  H44  1  0.42767000  0.61210000  0.80560000  1
  H  H45  1  0.45620000  0.23380000  0.10850000  1
  H  H46  1  0.45620000  0.77650000  0.95880000  1
  H  H47  1  0.45890000  0.80780000  0.06500000  1
  H  H48  1  0.46030000  0.47820000  0.04200000  1
  H  H49  1  0.46397000  0.43210000  0.87150000  1
  H  H50  1  0.46960000  0.89090000  0.16060000  1
  H  H51  1  0.47740000  0.62540000  0.99290000  1
  H  H52  1  0.48827000  0.62960000  0.73070000  1
  H  H53  1  0.49090000  0.43580000  0.47520000  1
  H  H54  1  0.50910000  0.56420000  0.03940000  1
  H  H55  1  0.51173000  0.37040000  0.10110000  1
  H  H56  1  0.52260000  0.37460000  0.36750000  1
  H  H57  1  0.53040000  0.10910000  0.26970000  1
  H  H58  1  0.53603000  0.56790000  0.43940000  1
  H  H59  1  0.53970000  0.52180000  0.56380000  1
  H  H60  1  0.54110000  0.19220000  0.25720000  1
  H  H61  1  0.54380000  0.22350000  0.18230000  1
  H  H62  1  0.54380000  0.76620000  0.87470000  1
  H  H63  1  0.57233000  0.38790000  0.19350000  1
  H  H64  1  0.57733000  0.47700000  0.35470000  1
  H  H65  1  0.59040000  0.01580000  0.25600000  1
  H  H66  1  0.62323000  0.86990000  0.62950000  1
  H  H67  1  0.62910000  0.64350000  0.95540000  1
  H  H68  1  0.65640000  0.27180000  0.42670000  1
  H  H69  1  0.67693000  0.42670000  0.27180000  1
  H  H70  1  0.70423000  0.95540000  0.64350000  1
  H  H71  1  0.71010000  0.62950000  0.86990000  1
  H  H72  1  0.74293000  0.25600000  0.01580000  1
  H  H73  1  0.75600000  0.35470000  0.47700000  1
  H  H74  1  0.76100000  0.19350000  0.38790000  1
  H  H75  1  0.78953000  0.87470000  0.76620000  1
  H  H76  1  0.78953000  0.18230000  0.22350000  1
  H  H77  1  0.79223000  0.25720000  0.19220000  1
  H  H78  1  0.79363000  0.56380000  0.52180000  1
  H  H79  1  0.79730000  0.43940000  0.56790000  1
  H  H80  1  0.80293000  0.26970000  0.10910000  1
  H  H81  1  0.81073000  0.36750000  0.37460000  1
  H  H82  1  0.82160000  0.10110000  0.37040000  1
  H  H83  1  0.82423000  0.03940000  0.56420000  1
  H  H84  1  0.84243000  0.47520000  0.43580000  1
  H  H85  1  0.84507000  0.73070000  0.62960000  1
  H  H86  1  0.85593000  0.99290000  0.62540000  1
  H  H87  1  0.86373000  0.16060000  0.89090000  1
  H  H88  1  0.86937000  0.87150000  0.43210000  1
  H  H89  1  0.87303000  0.04200000  0.47820000  1
  H  H90  1  0.87443000  0.06500000  0.80780000  1
  H  H91  1  0.87713000  0.95880000  0.77650000  1
  H  H92  1  0.87713000  0.10850000  0.23380000  1
  H  H93  1  0.90567000  0.80560000  0.61210000  1
  H  H94  1  0.91067000  0.87770000  0.52300000  1
  H  H95  1  0.92373000  0.24020000  0.98420000  1
  H  H96  1  0.95657000  0.75960000  0.13010000  1
  H  H97  1  0.96243000  0.31190000  0.35650000  1
  H  H98  1  0.98973000  0.15490000  0.72820000  1
  C  C99  1  0.00723000  0.08440000  0.50980000  1
  C  C100  1  0.00757000  0.77140000  0.11170000  1
  C  C101  1  0.02183000  0.11990000  0.31390000  1
  C  C102  1  0.02737000  0.83200000  0.67050000  1
  C  C103  1  0.03377000  0.83400000  0.13680000  1
  C  C104  1  0.04023000  0.08500000  0.45340000  1
  C  C105  1  0.04037000  0.77010000  0.71800000  1
  C  C106  1  0.04357000  0.87960000  0.60490000  1
  C  C107  1  0.04443000  0.10620000  0.61160000  1
  C  C108  1  0.04453000  0.26050000  0.95050000  1
  C  C109  1  0.04877000  0.92080000  0.53440000  1
  C  C110  1  0.05667000  0.72930000  0.06130000  1
  C  C111  1  0.05983000  0.20250000  0.84260000  1
  C  C112  1  0.06107000  0.88160000  0.66180000  1
  C  C113  1  0.06913000  0.10900000  0.56090000  1
  C  C114  1  0.07357000  0.92600000  0.59400000  1
  C  C115  1  0.07717000  0.81750000  0.70930000  1
  C  C116  1  0.08307000  0.94130000  0.45370000  1
  C  C117  1  0.08623000  0.30880000  0.00990000  1
  C  C118  1  0.09553000  0.24730000  0.89730000  1
  C  C119  1  0.10677000  0.84990000  0.10960000  1
  C  C120  1  0.11197000  0.94340000  0.50700000  1
  C  C121  1  0.11207000  0.93210000  0.70480000  1
  C  C122  1  0.12347000  0.97510000  0.63920000  1
  C  C123  1  0.13327000  0.74330000  0.03290000  1
  C  C124  1  0.14517000  0.97920000  0.69600000  1
  C  C125  1  0.15797000  0.80590000  0.05890000  1
  C  C126  1  0.17537000  0.05890000  0.80590000  1
  C  C127  1  0.18817000  0.69600000  0.97920000  1
  C  C128  1  0.20007000  0.03290000  0.74330000  1
  C  C129  1  0.20987000  0.63920000  0.97510000  1
  C  C130  1  0.22127000  0.70480000  0.93210000  1
  C  C131  1  0.22137000  0.50700000  0.94340000  1
  C  C132  1  0.22657000  0.10960000  0.84990000  1
  C  C133  1  0.23780000  0.89730000  0.24730000  1
  C  C134  1  0.24710000  0.00990000  0.30880000  1
  C  C135  1  0.25027000  0.45370000  0.94130000  1
  C  C136  1  0.25617000  0.70930000  0.81750000  1
  C  C137  1  0.25977000  0.59400000  0.92600000  1
  C  C138  1  0.26420000  0.56090000  0.10900000  1
  C  C139  1  0.27227000  0.66180000  0.88160000  1
  C  C140  1  0.27350000  0.84260000  0.20250000  1
  C  C141  1  0.27667000  0.06130000  0.72930000  1
  C  C142  1  0.28457000  0.53440000  0.92080000  1
  C  C143  1  0.28880000  0.95050000  0.26050000  1
  C  C144  1  0.28890000  0.61160000  0.10620000  1
  C  C145  1  0.28977000  0.60490000  0.87960000  1
  C  C146  1  0.29297000  0.71800000  0.77010000  1
  C  C147  1  0.29310000  0.45340000  0.08500000  1
  C  C148  1  0.29957000  0.13680000  0.83400000  1
  C  C149  1  0.30597000  0.67050000  0.83200000  1
  C  C150  1  0.31150000  0.31390000  0.11990000  1
  C  C151  1  0.32577000  0.11170000  0.77140000  1
  C  C152  1  0.32610000  0.50980000  0.08440000  1
  C  C153  1  0.34057000  0.42540000  0.91560000  1
  C  C154  1  0.34090000  0.34030000  0.22860000  1
  C  C155  1  0.35517000  0.19400000  0.88010000  1
  C  C156  1  0.36070000  0.83850000  0.16800000  1
  C  C157  1  0.36710000  0.30280000  0.16600000  1
  C  C158  1  0.37357000  0.36840000  0.91500000  1
  C  C159  1  0.37370000  0.94790000  0.22990000  1
  C  C160  1  0.37690000  0.72530000  0.12040000  1
  C  C161  1  0.37777000  0.50540000  0.89380000  1
  C  C162  1  0.37787000  0.69000000  0.73950000  1
  C  C163  1  0.38210000  0.61360000  0.07920000  1
  C  C164  1  0.39000000  0.33200000  0.27070000  1
  C  C165  1  0.39317000  0.64010000  0.79750000  1
  C  C166  1  0.39440000  0.78020000  0.11840000  1
  C  C167  1  0.40247000  0.45190000  0.89100000  1
  C  C168  1  0.40690000  0.66800000  0.07400000  1
  C  C169  1  0.41050000  0.89180000  0.18250000  1
  C  C170  1  0.41640000  0.51240000  0.05870000  1
  C  C171  1  0.41957000  0.70110000  0.69120000  1
  C  C172  1  0.42887000  0.65000000  0.75270000  1
  C  C173  1  0.44010000  0.25970000  0.15010000  1
  C  C174  1  0.44530000  0.56360000  0.05660000  1
  C  C175  1  0.44540000  0.77270000  0.06790000  1
  C  C176  1  0.45680000  0.66410000  0.02490000  1
  C  C177  1  0.46660000  0.28960000  0.25670000  1
  C  C178  1  0.47850000  0.71680000  0.02080000  1
  C  C179  1  0.49130000  0.25300000  0.19410000  1
  C  C180  1  0.50870000  0.74700000  0.94110000  1
  C  C181  1  0.52150000  0.28320000  0.30400000  1
  C  C182  1  0.53340000  0.71040000  0.96710000  1
  C  C183  1  0.54320000  0.33590000  0.36080000  1
  C  C184  1  0.55460000  0.22730000  0.29520000  1
  C  C185  1  0.55470000  0.43640000  0.49300000  1
  C  C186  1  0.55990000  0.74030000  0.89040000  1
  C  C187  1  0.57113000  0.35000000  0.10270000  1
  C  C188  1  0.58043000  0.29890000  0.99010000  1
  C  C189  1  0.58360000  0.48760000  0.54630000  1
  C  C190  1  0.58950000  0.10820000  0.29070000  1
  C  C191  1  0.59310000  0.33200000  0.40600000  1
  C  C192  1  0.59753000  0.54810000  0.43910000  1
  C  C193  1  0.60560000  0.21980000  0.33820000  1
  C  C194  1  0.60683000  0.35990000  0.15740000  1
  C  C195  1  0.61000000  0.66800000  0.93870000  1
  C  C196  1  0.61790000  0.38640000  0.46560000  1
  C  C197  1  0.62213000  0.31000000  0.04950000  1
  C  C198  1  0.62223000  0.49460000  0.38840000  1
  C  C199  1  0.62310000  0.27470000  0.39510000  1
  C  C200  1  0.62630000  0.05210000  0.28200000  1
  C  C201  1  0.62643000  0.63160000  0.54660000  1
  C  C202  1  0.63290000  0.69720000  0.86320000  1
  C  C203  1  0.63930000  0.16150000  0.32950000  1
  C  C204  1  0.64483000  0.80600000  0.68610000  1
  C  C205  1  0.65910000  0.65970000  0.88830000  1
  C  C206  1  0.65943000  0.57460000  0.49020000  1
  C  C207  1  0.67390000  0.49020000  0.57460000  1
  C  C208  1  0.67423000  0.88830000  0.65970000  1
  C  C209  1  0.68850000  0.68610000  0.80600000  1
  C  C210  1  0.69403000  0.32950000  0.16150000  1
  C  C211  1  0.70043000  0.86320000  0.69720000  1
  C  C212  1  0.70690000  0.54660000  0.63160000  1
  C  C213  1  0.70703000  0.28200000  0.05210000  1
  C  C214  1  0.71023000  0.39510000  0.27470000  1
  C  C215  1  0.71110000  0.38840000  0.49460000  1
  C  C216  1  0.71120000  0.04950000  0.31000000  1
  C  C217  1  0.71543000  0.46560000  0.38640000  1
  C  C218  1  0.72333000  0.93870000  0.66800000  1
  C  C219  1  0.72650000  0.15740000  0.35990000  1
  C  C220  1  0.72773000  0.33820000  0.21980000  1
  C  C221  1  0.73580000  0.43910000  0.54810000  1
  C  C222  1  0.74023000  0.40600000  0.33200000  1
  C  C223  1  0.74383000  0.29070000  0.10820000  1
  C  C224  1  0.74973000  0.54630000  0.48760000  1
  C  C225  1  0.75290000  0.99010000  0.29890000  1
  C  C226  1  0.76220000  0.10270000  0.35000000  1
  C  C227  1  0.77343000  0.89040000  0.74030000  1
  C  C228  1  0.77863000  0.49300000  0.43640000  1
  C  C229  1  0.77873000  0.29520000  0.22730000  1
  C  C230  1  0.79013000  0.36080000  0.33590000  1
  C  C231  1  0.79993000  0.96710000  0.71040000  1
  C  C232  1  0.81183000  0.30400000  0.28320000  1
  C  C233  1  0.82463000  0.94110000  0.74700000  1
  C  C234  1  0.84203000  0.19410000  0.25300000  1
  C  C235  1  0.85483000  0.02080000  0.71680000  1
  C  C236  1  0.86673000  0.25670000  0.28960000  1
  C  C237  1  0.87653000  0.02490000  0.66410000  1
  C  C238  1  0.88793000  0.06790000  0.77270000  1
  C  C239  1  0.88803000  0.05660000  0.56360000  1
  C  C240  1  0.89323000  0.15010000  0.25970000  1
  C  C241  1  0.90447000  0.75270000  0.65000000  1
  C  C242  1  0.91377000  0.69120000  0.70110000  1
  C  C243  1  0.91693000  0.05870000  0.51240000  1
  C  C244  1  0.92283000  0.18250000  0.89180000  1
  C  C245  1  0.92643000  0.07400000  0.66800000  1
  C  C246  1  0.93087000  0.89100000  0.45190000  1
  C  C247  1  0.93893000  0.11840000  0.78020000  1
  C  C248  1  0.94017000  0.79750000  0.64010000  1
  C  C249  1  0.94333000  0.27070000  0.33200000  1
  C  C250  1  0.95123000  0.07920000  0.61360000  1
  C  C251  1  0.95547000  0.73950000  0.69000000  1
  C  C252  1  0.95557000  0.89380000  0.50540000  1
  C  C253  1  0.95643000  0.12040000  0.72530000  1
  C  C254  1  0.95963000  0.22990000  0.94790000  1
  C  C255  1  0.95977000  0.91500000  0.36840000  1
  C  C256  1  0.96623000  0.16600000  0.30280000  1
  C  C257  1  0.97263000  0.16800000  0.83850000  1
  C  C258  1  0.97817000  0.88010000  0.19400000  1
  C  C259  1  0.99243000  0.22860000  0.34030000  1
  C  C260  1  0.99277000  0.91560000  0.42540000  1
  O  O261  1  0.01587000  0.93203000  0.22292000  1
  O  O262  1  0.01757000  0.93582000  0.34532000  1
  O  O263  1  0.02923000  0.33310000  0.05690000  1
  O  O264  1  0.09733000  0.13993000  0.34725000  1
  O  O265  1  0.12873000  0.10740000  0.45668000  1
  O  O266  1  0.15740000  0.01447000  0.32708000  1
  O  O267  1  0.17593000  0.32708000  0.01447000  1
  O  O268  1  0.20460000  0.45668000  0.10740000  1
  O  O269  1  0.23600000  0.34725000  0.13993000  1
  O  O270  1  0.30410000  0.05690000  0.33310000  1
  O  O271  1  0.31577000  0.34532000  0.93582000  1
  O  O272  1  0.31747000  0.22292000  0.93203000  1
  O  O273  1  0.34920000  0.29089000  0.06797000  1
  O  O274  1  0.35090000  0.40950000  0.06418000  1
  O  O275  1  0.36257000  0.72380000  0.66690000  1
  O  O276  1  0.43067000  0.20732000  0.86007000  1
  O  O277  1  0.46207000  0.34928000  0.89260000  1
  O  O278  1  0.49073000  0.31261000  0.98553000  1
  O  O279  1  0.50927000  0.68739000  0.67292000  1
  O  O280  1  0.53793000  0.65072000  0.54332000  1
  O  O281  1  0.56933000  0.79268000  0.65275000  1
  O  O282  1  0.63743000  0.27620000  0.94310000  1
  O  O283  1  0.64910000  0.59050000  0.65468000  1
  O  O284  1  0.65080000  0.70911000  0.77708000  1
  O  O285  1  0.68253000  0.77708000  0.70911000  1
  O  O286  1  0.68423000  0.65468000  0.59050000  1
  O  O287  1  0.69590000  0.94310000  0.27620000  1
  O  O288  1  0.76400000  0.65275000  0.79268000  1
  O  O289  1  0.79540000  0.54332000  0.65072000  1
  O  O290  1  0.82407000  0.67292000  0.68739000  1
  O  O291  1  0.84260000  0.98553000  0.31261000  1
  O  O292  1  0.87127000  0.89260000  0.34928000  1
  O  O293  1  0.90267000  0.86007000  0.20732000  1
  O  O294  1  0.97077000  0.66690000  0.72380000  1
  O  O295  1  0.98243000  0.06418000  0.40950000  1
  O  O296  1  0.98413000  0.06797000  0.29089000  1
