# generated using pymatgen
data_GdH15C24NO8
_symmetry_space_group_name_H-M   'P 1'
_cell_length_a   10.49100000
_cell_length_b   15.89400000
_cell_length_c   20.90900000
_cell_angle_alpha   107.84100000
_cell_angle_beta   90.00000000
_cell_angle_gamma   90.00000000
_symmetry_Int_Tables_number   1
_chemical_formula_structural   GdH15C24NO8
_chemical_formula_sum   'Gd4 H60 C96 N4 O32'
_cell_volume   3318.78737336
_cell_formula_units_Z   4
loop_
 _symmetry_equiv_pos_site_id
 _symmetry_equiv_pos_as_xyz
  1  'x, y, z'
loop_
 _atom_site_type_symbol
 _atom_site_label
 _atom_site_symmetry_multiplicity
 _atom_site_fract_x
 _atom_site_fract_y
 _atom_site_fract_z
 _atom_site_occupancy
  Gd  Gd0  1  0.92182000  0.60063000  0.45446000  1
  Gd  Gd1  1  0.07818000  0.60063000  0.95446000  1
  Gd  Gd2  1  0.92182000  0.39938000  0.04554000  1
  Gd  Gd3  1  0.07818000  0.39938000  0.54554000  1
  H  H4  1  0.56730000  0.99200000  0.56030000  1
  H  H5  1  0.43270000  0.99200000  0.06030000  1
  H  H6  1  0.92820000  0.94890000  0.67230000  1
  H  H7  1  0.07180000  0.94890000  0.17230000  1
  H  H8  1  0.81230000  0.92200000  0.78850000  1
  H  H9  1  0.18770000  0.92200000  0.28850000  1
  H  H10  1  0.54720000  0.89920000  0.73320000  1
  H  H11  1  0.45280000  0.89920000  0.23320000  1
  H  H12  1  0.51280000  0.88150000  0.83780000  1
  H  H13  1  0.48720000  0.88150000  0.33780000  1
  H  H14  1  0.68360000  0.86320000  0.51990000  1
  H  H15  1  0.31640000  0.86320000  0.01990000  1
  H  H16  1  0.57960000  0.85910000  0.12230000  1
  H  H17  1  0.42040000  0.85910000  0.62230000  1
  H  H18  1  0.64240000  0.83820000  0.68200000  1
  H  H19  1  0.35760000  0.83820000  0.18200000  1
  H  H20  1  0.61570000  0.83140000  0.86650000  1
  H  H21  1  0.38430000  0.83140000  0.36650000  1
  H  H22  1  0.74920000  0.77390000  0.06700000  1
  H  H23  1  0.25080000  0.77390000  0.56700000  1
  H  H24  1  0.78750000  0.76550000  0.85130000  1
  H  H25  1  0.21250000  0.76550000  0.35130000  1
  H  H26  1  0.70950000  0.70590000  0.65400000  1
  H  H27  1  0.29050000  0.70590000  0.15400000  1
  H  H28  1  0.52380000  0.68830000  0.22540000  1
  H  H29  1  0.47620000  0.68830000  0.72540000  1
  H  H30  1  0.68620000  0.60070000  0.16650000  1
  H  H31  1  0.31380000  0.60070000  0.66650000  1
  H  H32  1  0.97460000  0.56800000  0.71880000  1
  H  H33  1  0.02540000  0.56800000  0.21880000  1
  H  H34  1  0.97460000  0.43200000  0.78120000  1
  H  H35  1  0.02540000  0.43200000  0.28120000  1
  H  H36  1  0.68620000  0.39930000  0.33350000  1
  H  H37  1  0.31380000  0.39930000  0.83350000  1
  H  H38  1  0.52380000  0.31170000  0.27460000  1
  H  H39  1  0.47620000  0.31170000  0.77460000  1
  H  H40  1  0.70950000  0.29410000  0.84600000  1
  H  H41  1  0.29050000  0.29410000  0.34600000  1
  H  H42  1  0.78750000  0.23450000  0.64870000  1
  H  H43  1  0.21250000  0.23450000  0.14870000  1
  H  H44  1  0.74920000  0.22610000  0.43300000  1
  H  H45  1  0.25080000  0.22610000  0.93300000  1
  H  H46  1  0.61570000  0.16860000  0.63350000  1
  H  H47  1  0.38430000  0.16860000  0.13350000  1
  H  H48  1  0.64240000  0.16180000  0.81800000  1
  H  H49  1  0.35760000  0.16180000  0.31800000  1
  H  H50  1  0.57960000  0.14090000  0.37770000  1
  H  H51  1  0.42040000  0.14090000  0.87770000  1
  H  H52  1  0.68360000  0.13680000  0.98010000  1
  H  H53  1  0.31640000  0.13680000  0.48010000  1
  H  H54  1  0.51280000  0.11850000  0.66220000  1
  H  H55  1  0.48720000  0.11850000  0.16220000  1
  H  H56  1  0.54720000  0.10080000  0.76680000  1
  H  H57  1  0.45280000  0.10080000  0.26680000  1
  H  H58  1  0.81230000  0.07800000  0.71150000  1
  H  H59  1  0.18770000  0.07800000  0.21150000  1
  H  H60  1  0.92820000  0.05110000  0.82770000  1
  H  H61  1  0.07180000  0.05110000  0.32770000  1
  H  H62  1  0.56730000  0.00800000  0.93970000  1
  H  H63  1  0.43270000  0.00800000  0.43970000  1
  C  C64  1  0.64100000  0.98420000  0.58250000  1
  C  C65  1  0.35900000  0.98420000  0.08250000  1
  C  C66  1  0.78650000  0.96490000  0.82760000  1
  C  C67  1  0.21350000  0.96490000  0.32760000  1
  C  C68  1  0.85680000  0.95770000  0.64880000  1
  C  C69  1  0.14320000  0.95770000  0.14880000  1
  C  C70  1  0.68030000  0.95040000  0.86060000  1
  C  C71  1  0.31970000  0.95040000  0.36060000  1
  C  C72  1  0.71090000  0.90680000  0.55820000  1
  C  C73  1  0.28910000  0.90680000  0.05820000  1
  C  C74  1  0.82060000  0.89410000  0.59050000  1
  C  C75  1  0.17940000  0.89410000  0.09050000  1
  C  C76  1  0.60250000  0.86610000  0.83610000  1
  C  C77  1  0.39750000  0.86610000  0.33610000  1
  C  C78  1  0.57700000  0.83880000  0.71490000  1
  C  C79  1  0.42300000  0.83880000  0.21490000  1
  C  C80  1  0.89480000  0.81240000  0.56350000  1
  C  C81  1  0.10520000  0.81240000  0.06350000  1
  C  C82  1  0.60110000  0.80740000  0.13180000  1
  C  C83  1  0.39890000  0.80740000  0.63180000  1
  C  C84  1  0.53270000  0.78200000  0.17970000  1
  C  C85  1  0.46730000  0.78200000  0.67970000  1
  C  C86  1  0.70170000  0.75550000  0.09780000  1
  C  C87  1  0.29830000  0.75550000  0.59780000  1
  C  C88  1  0.72820000  0.74820000  0.75580000  1
  C  C89  1  0.27180000  0.74820000  0.25580000  1
  C  C90  1  0.80100000  0.73150000  0.80700000  1
  C  C91  1  0.19900000  0.73150000  0.30700000  1
  C  C92  1  0.56720000  0.70520000  0.19260000  1
  C  C93  1  0.43280000  0.70520000  0.69260000  1
  C  C94  1  0.75390000  0.69560000  0.68940000  1
  C  C95  1  0.24610000  0.69560000  0.18940000  1
  C  C96  1  0.73140000  0.67730000  0.10950000  1
  C  C97  1  0.26860000  0.67730000  0.60950000  1
  C  C98  1  0.89190000  0.66600000  0.79280000  1
  C  C99  1  0.10810000  0.66600000  0.29280000  1
  C  C100  1  0.96840000  0.65310000  0.85090000  1
  C  C101  1  0.03160000  0.65310000  0.35090000  1
  C  C102  1  0.66520000  0.65280000  0.15750000  1
  C  C103  1  0.33480000  0.65280000  0.65750000  1
  C  C104  1  0.84430000  0.62880000  0.67600000  1
  C  C105  1  0.15570000  0.62880000  0.17600000  1
  C  C106  1  0.83290000  0.61790000  0.06880000  1
  C  C107  1  0.16710000  0.61790000  0.56880000  1
  C  C108  1  0.91430000  0.61300000  0.72780000  1
  C  C109  1  0.08570000  0.61300000  0.22780000  1
  C  C110  1  0.86730000  0.57500000  0.60370000  1
  C  C111  1  0.13270000  0.57500000  0.10370000  1
  C  C112  1  0.86730000  0.42500000  0.89630000  1
  C  C113  1  0.13270000  0.42500000  0.39630000  1
  C  C114  1  0.91430000  0.38700000  0.77220000  1
  C  C115  1  0.08570000  0.38700000  0.27220000  1
  C  C116  1  0.83290000  0.38210000  0.43120000  1
  C  C117  1  0.16710000  0.38210000  0.93120000  1
  C  C118  1  0.84430000  0.37120000  0.82400000  1
  C  C119  1  0.15570000  0.37120000  0.32400000  1
  C  C120  1  0.66520000  0.34720000  0.34250000  1
  C  C121  1  0.33480000  0.34720000  0.84250000  1
  C  C122  1  0.96840000  0.34690000  0.64910000  1
  C  C123  1  0.03160000  0.34690000  0.14910000  1
  C  C124  1  0.89190000  0.33400000  0.70720000  1
  C  C125  1  0.10810000  0.33400000  0.20720000  1
  C  C126  1  0.73140000  0.32270000  0.39050000  1
  C  C127  1  0.26860000  0.32270000  0.89050000  1
  C  C128  1  0.75390000  0.30440000  0.81060000  1
  C  C129  1  0.24610000  0.30440000  0.31060000  1
  C  C130  1  0.56720000  0.29480000  0.30740000  1
  C  C131  1  0.43280000  0.29480000  0.80740000  1
  C  C132  1  0.80100000  0.26850000  0.69300000  1
  C  C133  1  0.19900000  0.26850000  0.19300000  1
  C  C134  1  0.72820000  0.25180000  0.74420000  1
  C  C135  1  0.27180000  0.25180000  0.24420000  1
  C  C136  1  0.70170000  0.24450000  0.40220000  1
  C  C137  1  0.29830000  0.24450000  0.90220000  1
  C  C138  1  0.53270000  0.21800000  0.32030000  1
  C  C139  1  0.46730000  0.21800000  0.82030000  1
  C  C140  1  0.60110000  0.19260000  0.36820000  1
  C  C141  1  0.39890000  0.19260000  0.86820000  1
  C  C142  1  0.89480000  0.18760000  0.93650000  1
  C  C143  1  0.10520000  0.18760000  0.43650000  1
  C  C144  1  0.57700000  0.16120000  0.78510000  1
  C  C145  1  0.42300000  0.16120000  0.28510000  1
  C  C146  1  0.60250000  0.13390000  0.66390000  1
  C  C147  1  0.39750000  0.13390000  0.16390000  1
  C  C148  1  0.82060000  0.10590000  0.90950000  1
  C  C149  1  0.17940000  0.10590000  0.40950000  1
  C  C150  1  0.71090000  0.09320000  0.94180000  1
  C  C151  1  0.28910000  0.09320000  0.44180000  1
  C  C152  1  0.68030000  0.04960000  0.63940000  1
  C  C153  1  0.31970000  0.04960000  0.13940000  1
  C  C154  1  0.85680000  0.04230000  0.85120000  1
  C  C155  1  0.14320000  0.04230000  0.35120000  1
  C  C156  1  0.78650000  0.03510000  0.67240000  1
  C  C157  1  0.21350000  0.03510000  0.17240000  1
  C  C158  1  0.64100000  0.01580000  0.91750000  1
  C  C159  1  0.35900000  0.01580000  0.41750000  1
  N  N160  1  0.63350000  0.81190000  0.76840000  1
  N  N161  1  0.36650000  0.81190000  0.26840000  1
  N  N162  1  0.63350000  0.18810000  0.73160000  1
  N  N163  1  0.36650000  0.18810000  0.23160000  1
  O  O164  1  0.99070000  0.80360000  0.60040000  1
  O  O165  1  0.00930000  0.80360000  0.10040000  1
  O  O166  1  0.86640000  0.75670000  0.51080000  1
  O  O167  1  0.13360000  0.75670000  0.01080000  1
  O  O168  1  0.92990000  0.68840000  0.90950000  1
  O  O169  1  0.07010000  0.68840000  0.40950000  1
  O  O170  1  0.91270000  0.65100000  0.03860000  1
  O  O171  1  0.08730000  0.65100000  0.53860000  1
  O  O172  1  0.83130000  0.60720000  0.55930000  1
  O  O173  1  0.16870000  0.60720000  0.05930000  1
  O  O174  1  0.93350000  0.60510000  0.33880000  1
  O  O175  1  0.06650000  0.60510000  0.83880000  1
  O  O176  1  0.83140000  0.53930000  0.06790000  1
  O  O177  1  0.16860000  0.53930000  0.56790000  1
  O  O178  1  0.92050000  0.50090000  0.59250000  1
  O  O179  1  0.07950000  0.50090000  0.09250000  1
  O  O180  1  0.92050000  0.49910000  0.90750000  1
  O  O181  1  0.07950000  0.49910000  0.40750000  1
  O  O182  1  0.83140000  0.46070000  0.43210000  1
  O  O183  1  0.16860000  0.46070000  0.93210000  1
  O  O184  1  0.93350000  0.39490000  0.16120000  1
  O  O185  1  0.06650000  0.39490000  0.66120000  1
  O  O186  1  0.83130000  0.39280000  0.94070000  1
  O  O187  1  0.16870000  0.39280000  0.44070000  1
  O  O188  1  0.91270000  0.34900000  0.46140000  1
  O  O189  1  0.08730000  0.34900000  0.96140000  1
  O  O190  1  0.92990000  0.31160000  0.59050000  1
  O  O191  1  0.07010000  0.31160000  0.09050000  1
  O  O192  1  0.86640000  0.24330000  0.98920000  1
  O  O193  1  0.13360000  0.24330000  0.48920000  1
  O  O194  1  0.99070000  0.19640000  0.89960000  1
  O  O195  1  0.00930000  0.19640000  0.39960000  1
