# generated using pymatgen
data_Mn3CrH21C15(N2O)6
_symmetry_space_group_name_H-M   'P 1'
_cell_length_a   8.13510000
_cell_length_b   13.55540000
_cell_length_c   13.55540000
_cell_angle_alpha   120.00000000
_cell_angle_beta   90.00000000
_cell_angle_gamma   90.00000000
_symmetry_Int_Tables_number   1
_chemical_formula_structural   Mn3CrH21C15(N2O)6
_chemical_formula_sum   'Mn6 Cr2 H42 C30 N24 O12'
_cell_volume   1294.54813245
_cell_formula_units_Z   2
loop_
 _symmetry_equiv_pos_site_id
 _symmetry_equiv_pos_as_xyz
  1  'x, y, z'
loop_
 _atom_site_type_symbol
 _atom_site_label
 _atom_site_symmetry_multiplicity
 _atom_site_fract_x
 _atom_site_fract_y
 _atom_site_fract_z
 _atom_site_occupancy
  Mn  Mn0  1  0.45550000  0.96355000  0.66885000  1
  Mn  Mn1  1  0.45550000  0.70530000  0.03645000  1
  Mn  Mn2  1  0.95550000  0.66885000  0.70530000  1
  Mn  Mn3  1  0.45550000  0.33115000  0.29470000  1
  Mn  Mn4  1  0.95550000  0.29470000  0.96355000  1
  Mn  Mn5  1  0.95550000  0.03645000  0.33115000  1
  Cr  Cr6  1  0.07700000  0.66666667  0.33333333  1
  Cr  Cr7  1  0.57700000  0.33333333  0.66666667  1
  H  H8  1  0.69660000  0.98370000  0.54580000  1
  H  H9  1  0.93790000  0.95230000  0.60700000  1
  H  H10  1  0.55780000  0.91850000  0.19650000  1
  H  H11  1  0.84070000  0.91410000  0.68230000  1
  H  H12  1  0.29160000  0.86810000  0.28470000  1
  H  H13  1  0.70190000  0.86610000  0.52020000  1
  H  H14  1  0.55480000  0.85220000  0.25470000  1
  H  H15  1  0.55780000  0.80350000  0.72200000  1
  H  H16  1  0.84070000  0.76820000  0.08590000  1
  H  H17  1  0.55480000  0.74530000  0.59750000  1
  H  H18  1  0.05780000  0.72200000  0.91850000  1
  H  H19  1  0.29160000  0.71530000  0.58340000  1
  H  H20  1  0.34070000  0.68230000  0.76820000  1
  H  H21  1  0.93790000  0.65470000  0.04770000  1
  H  H22  1  0.70190000  0.65410000  0.13390000  1
  H  H23  1  0.43790000  0.60700000  0.65470000  1
  H  H24  1  0.05480000  0.59750000  0.85220000  1
  H  H25  1  0.79160000  0.58340000  0.86810000  1
  H  H26  1  0.69660000  0.56210000  0.01630000  1
  H  H27  1  0.19660000  0.54580000  0.56210000  1
  H  H28  1  0.20190000  0.52020000  0.65410000  1
  H  H29  1  0.70190000  0.47980000  0.34590000  1
  H  H30  1  0.69660000  0.45420000  0.43790000  1
  H  H31  1  0.19660000  0.43790000  0.98370000  1
  H  H32  1  0.29160000  0.41660000  0.13190000  1
  H  H33  1  0.55480000  0.40250000  0.14780000  1
  H  H34  1  0.93790000  0.39300000  0.34530000  1
  H  H35  1  0.20190000  0.34590000  0.86610000  1
  H  H36  1  0.43790000  0.34530000  0.95230000  1
  H  H37  1  0.84070000  0.31770000  0.23180000  1
  H  H38  1  0.79160000  0.28470000  0.41660000  1
  H  H39  1  0.55780000  0.27800000  0.08150000  1
  H  H40  1  0.05480000  0.25470000  0.40250000  1
  H  H41  1  0.34070000  0.23180000  0.91410000  1
  H  H42  1  0.05780000  0.19650000  0.27800000  1
  H  H43  1  0.05480000  0.14780000  0.74530000  1
  H  H44  1  0.20190000  0.13390000  0.47980000  1
  H  H45  1  0.79160000  0.13190000  0.71530000  1
  H  H46  1  0.34070000  0.08590000  0.31770000  1
  H  H47  1  0.05780000  0.08150000  0.80350000  1
  H  H48  1  0.43790000  0.04770000  0.39300000  1
  H  H49  1  0.19660000  0.01630000  0.45420000  1
  C  C50  1  0.83850000  0.96490000  0.65130000  1
  C  C51  1  0.33450000  0.91370000  0.25270000  1
  C  C52  1  0.21870000  0.89340000  0.15460000  1
  C  C53  1  0.21870000  0.84540000  0.73880000  1
  C  C54  1  0.22720000  0.79850000  0.44650000  1
  C  C55  1  0.94050000  0.78970000  0.32100000  1
  C  C56  1  0.33450000  0.74730000  0.66100000  1
  C  C57  1  0.71870000  0.73880000  0.89340000  1
  C  C58  1  0.83850000  0.68640000  0.03510000  1
  C  C59  1  0.94050000  0.67900000  0.46870000  1
  C  C60  1  0.83450000  0.66100000  0.91370000  1
  C  C61  1  0.33850000  0.65130000  0.68640000  1
  C  C62  1  0.22720000  0.64800000  0.20150000  1
  C  C63  1  0.22720000  0.55350000  0.35200000  1
  C  C64  1  0.94050000  0.53130000  0.21030000  1
  C  C65  1  0.44050000  0.46870000  0.78970000  1
  C  C66  1  0.72720000  0.44650000  0.64800000  1
  C  C67  1  0.72720000  0.35200000  0.79850000  1
  C  C68  1  0.83850000  0.34870000  0.31360000  1
  C  C69  1  0.33450000  0.33900000  0.08630000  1
  C  C70  1  0.44050000  0.32100000  0.53130000  1
  C  C71  1  0.33850000  0.31360000  0.96490000  1
  C  C72  1  0.21870000  0.26120000  0.10660000  1
  C  C73  1  0.83450000  0.25270000  0.33900000  1
  C  C74  1  0.44050000  0.21030000  0.67900000  1
  C  C75  1  0.72720000  0.20150000  0.55350000  1
  C  C76  1  0.71870000  0.15460000  0.26120000  1
  C  C77  1  0.71870000  0.10660000  0.84540000  1
  C  C78  1  0.83450000  0.08630000  0.74730000  1
  C  C79  1  0.33850000  0.03510000  0.34870000  1
  N  N80  1  0.69500000  0.93880000  0.57710000  1
  N  N81  1  0.30910000  0.86920000  0.50760000  1
  N  N82  1  0.49940000  0.86790000  0.20670000  1
  N  N83  1  0.88890000  0.86720000  0.31930000  1
  N  N84  1  0.49940000  0.79330000  0.66120000  1
  N  N85  1  0.88890000  0.68070000  0.54790000  1
  N  N86  1  0.99940000  0.66120000  0.86790000  1
  N  N87  1  0.30910000  0.63840000  0.13080000  1
  N  N88  1  0.69500000  0.63830000  0.06120000  1
  N  N89  1  0.19500000  0.57710000  0.63830000  1
  N  N90  1  0.38890000  0.54790000  0.86720000  1
  N  N91  1  0.80910000  0.50760000  0.63840000  1
  N  N92  1  0.30910000  0.49240000  0.36160000  1
  N  N93  1  0.88890000  0.45210000  0.13280000  1
  N  N94  1  0.69500000  0.42290000  0.36170000  1
  N  N95  1  0.19500000  0.36170000  0.93880000  1
  N  N96  1  0.80910000  0.36160000  0.86920000  1
  N  N97  1  0.49940000  0.33880000  0.13210000  1
  N  N98  1  0.38890000  0.31930000  0.45210000  1
  N  N99  1  0.99940000  0.20670000  0.33880000  1
  N  N100  1  0.38890000  0.13280000  0.68070000  1
  N  N101  1  0.99940000  0.13210000  0.79330000  1
  N  N102  1  0.80910000  0.13080000  0.49240000  1
  N  N103  1  0.19500000  0.06120000  0.42290000  1
  O  O104  1  0.09270000  0.95000000  0.17680000  1
  O  O105  1  0.25510000  0.94540000  0.76250000  1
  O  O106  1  0.09270000  0.82320000  0.77320000  1
  O  O107  1  0.25510000  0.81710000  0.05460000  1
  O  O108  1  0.59270000  0.77320000  0.95000000  1
  O  O109  1  0.75510000  0.76250000  0.81710000  1
  O  O110  1  0.25510000  0.23750000  0.18290000  1
  O  O111  1  0.09270000  0.22680000  0.05000000  1
  O  O112  1  0.75510000  0.18290000  0.94540000  1
  O  O113  1  0.59270000  0.17680000  0.22680000  1
  O  O114  1  0.75510000  0.05460000  0.23750000  1
  O  O115  1  0.59270000  0.05000000  0.82320000  1
