# generated using pymatgen
data_Zn4Si3H68(C6O)14
_symmetry_space_group_name_H-M   'P 1'
_cell_length_a   12.08910000
_cell_length_b   14.82877465
_cell_length_c   28.05553581
_cell_angle_alpha   96.96216819
_cell_angle_beta   90.00000000
_cell_angle_gamma   114.05560425
_symmetry_Int_Tables_number   1
_chemical_formula_structural   Zn4Si3H68(C6O)14
_chemical_formula_sum   'Zn8 Si6 H136 C168 O28'
_cell_volume   4551.97315309
_cell_formula_units_Z   2
loop_
 _symmetry_equiv_pos_site_id
 _symmetry_equiv_pos_as_xyz
  1  'x, y, z'
loop_
 _atom_site_type_symbol
 _atom_site_label
 _atom_site_symmetry_multiplicity
 _atom_site_fract_x
 _atom_site_fract_y
 _atom_site_fract_z
 _atom_site_occupancy
  C  C0  1  0.73160000  0.78920000  0.39380000  1
  C  C1  1  0.55760000  0.78920000  0.89380000  1
  C  C2  1  0.97623000  0.20166000  0.58884000  1
  C  C3  1  0.72543000  0.20166000  0.08884000  1
  C  C4  1  0.61360000  0.88440000  0.42550000  1
  C  C5  1  0.77080000  0.88440000  0.92550000  1
  C  C6  1  0.90131000  0.24902000  0.60450000  1
  C  C7  1  0.84771000  0.24902000  0.10450000  1
  C  C8  1  0.23650000  0.42320000  0.19030000  1
  C  C9  1  0.68670000  0.42320000  0.69030000  1
  C  C10  1  0.64800000  0.83240000  0.38760000  1
  C  C11  1  0.68440000  0.83240000  0.88760000  1
  C  C12  1  0.27530000  0.11800000  0.03000000  1
  C  C13  1  0.34270000  0.11800000  0.53000000  1
  C  C14  1  0.10157000  0.79134000  0.86413000  1
  C  C15  1  0.18977000  0.79134000  0.36413000  1
  C  C16  1  0.15329000  0.61618000  0.77306000  1
  C  C17  1  0.96289000  0.61618000  0.27306000  1
  C  C18  1  0.80858000  0.47816000  0.69347000  1
  C  C19  1  0.16958000  0.47816000  0.19347000  1
  C  C20  1  0.48910000  0.21260000  0.05979000  1
  C  C21  1  0.22350000  0.21260000  0.55979000  1
  C  C22  1  0.34416000  0.88832000  0.89508000  1
  C  C23  1  0.04416000  0.88832000  0.39508000  1
  C  C24  1  0.52840000  0.93500000  0.41670000  1
  C  C25  1  0.90660000  0.93500000  0.91670000  1
  C  C26  1  0.27810000  0.39760000  0.14650000  1
  C  C27  1  0.61950000  0.39760000  0.64650000  1
  C  C28  1  0.05129000  0.61078000  0.74826000  1
  C  C29  1  0.05949000  0.61078000  0.24826000  1
  C  C30  1  0.39940000  0.16320000  0.02310000  1
  C  C31  1  0.26380000  0.16320000  0.52310000  1
  C  C32  1  0.26452000  0.69684000  0.77269000  1
  C  C33  1  0.93232000  0.69684000  0.27269000  1
  C  C34  1  0.17403000  0.88026000  0.84818000  1
  C  C35  1  0.20623000  0.88026000  0.34818000  1
  C  C36  1  0.94526000  0.13252000  0.47025000  1
  C  C37  1  0.68726000  0.13252000  0.97025000  1
  C  C38  1  0.86284000  0.49808000  0.64975000  1
  C  C39  1  0.13524000  0.49808000  0.14975000  1
  C  C40  1  0.29504000  0.92928000  0.86337000  1
  C  C41  1  0.13424000  0.92928000  0.36337000  1
  C  C42  1  0.25340000  0.42460000  0.10510000  1
  C  C43  1  0.67120000  0.42460000  0.60510000  1
  C  C44  1  0.20580000  0.45020000  0.60640000  1
  C  C45  1  0.74440000  0.45020000  0.10640000  1
  C  C46  1  0.06317000  0.69054000  0.72421000  1
  C  C47  1  0.12737000  0.69054000  0.22421000  1
  C  C48  1  0.91424000  0.09368000  0.42238000  1
  C  C49  1  0.67944000  0.09368000  0.92238000  1
  C  C50  1  0.05019000  0.21898000  0.48414000  1
  C  C51  1  0.66879000  0.21898000  0.98414000  1
  C  C52  1  0.79500000  0.47240000  0.60650000  1
  C  C53  1  0.17740000  0.47240000  0.10650000  1
  C  C54  1  0.28680000  0.38640000  0.05620000  1
  C  C55  1  0.59960000  0.38640000  0.55620000  1
  C  C56  1  0.15520000  0.39980000  0.56250000  1
  C  C57  1  0.74460000  0.39980000  0.06250000  1
  C  C58  1  0.27586000  0.77392000  0.74740000  1
  C  C59  1  0.99806000  0.77392000  0.24740000  1
  C  C60  1  0.12231000  0.92102000  0.81169000  1
  C  C61  1  0.29871000  0.92102000  0.31169000  1
  C  C62  1  0.23190000  0.55000000  0.61900000  1
  C  C63  1  0.81810000  0.55000000  0.11900000  1
  C  C64  1  0.17332000  0.77164000  0.72389000  1
  C  C65  1  0.09832000  0.77164000  0.22389000  1
  C  C66  1  0.98856000  0.13852000  0.38711000  1
  C  C67  1  0.64996000  0.13852000  0.88711000  1
  C  C68  1  0.39536000  0.86072000  0.74668000  1
  C  C69  1  0.96536000  0.86072000  0.24668000  1
  C  C70  1  0.12354000  0.26428000  0.44773000  1
  C  C71  1  0.64074000  0.26428000  0.94773000  1
  C  C72  1  0.12410000  0.45400000  0.53250000  1
  C  C73  1  0.82990000  0.45400000  0.03250000  1
  C  C74  1  0.95919000  0.09198000  0.33575000  1
  C  C75  1  0.63279000  0.09198000  0.83575000  1
  C  C76  1  0.09222000  0.22444000  0.39967000  1
  C  C77  1  0.63222000  0.22444000  0.89967000  1
  C  C78  1  0.20470000  0.60460000  0.58780000  1
  C  C79  1  0.89990000  0.60460000  0.08780000  1
  C  C80  1  0.15060000  0.55500000  0.54440000  1
  C  C81  1  0.90440000  0.55500000  0.04440000  1
  C  C82  1  0.77410000  0.28580000  0.40010000  1
  C  C83  1  0.01170000  0.28580000  0.90010000  1
  C  C84  1  0.22590000  0.71420000  0.59990000  1
  C  C85  1  0.98830000  0.71420000  0.09990000  1
  C  C86  1  0.84940000  0.44500000  0.45560000  1
  C  C87  1  0.09560000  0.44500000  0.95560000  1
  C  C88  1  0.79530000  0.39540000  0.41220000  1
  C  C89  1  0.10010000  0.39540000  0.91220000  1
  C  C90  1  0.90778000  0.77556000  0.60033000  1
  C  C91  1  0.36778000  0.77556000  0.10033000  1
  C  C92  1  0.04081000  0.90802000  0.66425000  1
  C  C93  1  0.36721000  0.90802000  0.16425000  1
  C  C94  1  0.87590000  0.54600000  0.46750000  1
  C  C95  1  0.17010000  0.54600000  0.96750000  1
  C  C96  1  0.87646000  0.73572000  0.55227000  1
  C  C97  1  0.35926000  0.73572000  0.05227000  1
  C  C98  1  0.60464000  0.13928000  0.25332000  1
  C  C99  1  0.03464000  0.13928000  0.75332000  1
  C  C100  1  0.01144000  0.86148000  0.61289000  1
  C  C101  1  0.35004000  0.86148000  0.11289000  1
  C  C102  1  0.82668000  0.22836000  0.27611000  1
  C  C103  1  0.90168000  0.22836000  0.77611000  1
  C  C104  1  0.76810000  0.45000000  0.38100000  1
  C  C105  1  0.18190000  0.45000000  0.88100000  1
  C  C106  1  0.87769000  0.07898000  0.18831000  1
  C  C107  1  0.70129000  0.07898000  0.68831000  1
  C  C108  1  0.72414000  0.22608000  0.25260000  1
  C  C109  1  0.00194000  0.22608000  0.75260000  1
  C  C110  1  0.84480000  0.60020000  0.43750000  1
  C  C111  1  0.25540000  0.60020000  0.93750000  1
  C  C112  1  0.71320000  0.61360000  0.94380000  1
  C  C113  1  0.40040000  0.61360000  0.44380000  1
  C  C114  1  0.20500000  0.52760000  0.39350000  1
  C  C115  1  0.82260000  0.52760000  0.89350000  1
  C  C116  1  0.94981000  0.78102000  0.51586000  1
  C  C117  1  0.33121000  0.78102000  0.01586000  1
  C  C118  1  0.08576000  0.90632000  0.57762000  1
  C  C119  1  0.32056000  0.90632000  0.07762000  1
  C  C120  1  0.93683000  0.30946000  0.27579000  1
  C  C121  1  0.87263000  0.30946000  0.77579000  1
  C  C122  1  0.79420000  0.54980000  0.39360000  1
  C  C123  1  0.25560000  0.54980000  0.89360000  1
  C  C124  1  0.74660000  0.57540000  0.89490000  1
  C  C125  1  0.32880000  0.57540000  0.39490000  1
  C  C126  1  0.70496000  0.07072000  0.13663000  1
  C  C127  1  0.86576000  0.07072000  0.63663000  1
  C  C128  1  0.13716000  0.50192000  0.35025000  1
  C  C129  1  0.86476000  0.50192000  0.85025000  1
  C  C130  1  0.05474000  0.86748000  0.52975000  1
  C  C131  1  0.31274000  0.86748000  0.02975000  1
  C  C132  1  0.82597000  0.11974000  0.15182000  1
  C  C133  1  0.79377000  0.11974000  0.65182000  1
  C  C134  1  0.73548000  0.30316000  0.22731000  1
  C  C135  1  0.06768000  0.30316000  0.72731000  1
  C  C136  1  0.60060000  0.83680000  0.97690000  1
  C  C137  1  0.73620000  0.83680000  0.47690000  1
  C  C138  1  0.94871000  0.38922000  0.25174000  1
  C  C139  1  0.94051000  0.38922000  0.75174000  1
  C  C140  1  0.72190000  0.60240000  0.85350000  1
  C  C141  1  0.38050000  0.60240000  0.35350000  1
  C  C142  1  0.47160000  0.06500000  0.58330000  1
  C  C143  1  0.09340000  0.06500000  0.08330000  1
  C  C144  1  0.65584000  0.11168000  0.10492000  1
  C  C145  1  0.95584000  0.11168000  0.60492000  1
  C  C146  1  0.51090000  0.78740000  0.94021000  1
  C  C147  1  0.77650000  0.78740000  0.44021000  1
  C  C148  1  0.19142000  0.52184000  0.30653000  1
  C  C149  1  0.83042000  0.52184000  0.80653000  1
  C  C150  1  0.84671000  0.38382000  0.22694000  1
  C  C151  1  0.03711000  0.38382000  0.72694000  1
  C  C152  1  0.89843000  0.20866000  0.13587000  1
  C  C153  1  0.81023000  0.20866000  0.63587000  1
  C  C154  1  0.72470000  0.88200000  0.97000000  1
  C  C155  1  0.65730000  0.88200000  0.47000000  1
  C  C156  1  0.35200000  0.16760000  0.61240000  1
  C  C157  1  0.31560000  0.16760000  0.11240000  1
  C  C158  1  0.76350000  0.57680000  0.80970000  1
  C  C159  1  0.31330000  0.57680000  0.30970000  1
  C  C160  1  0.09869000  0.75098000  0.39550000  1
  C  C161  1  0.15229000  0.75098000  0.89550000  1
  C  C162  1  0.38640000  0.11560000  0.57450000  1
  C  C163  1  0.22920000  0.11560000  0.07450000  1
  C  C164  1  0.02377000  0.79834000  0.41116000  1
  C  C165  1  0.27457000  0.79834000  0.91116000  1
  C  C166  1  0.26840000  0.21080000  0.60620000  1
  C  C167  1  0.44240000  0.21080000  0.10620000  1
  H  H168  1  0.08240000  0.43520000  0.70970000  1
  H  H169  1  0.85280000  0.43520000  0.20970000  1
  H  H170  1  0.75730000  0.76140000  0.36690000  1
  H  H171  1  0.50410000  0.76140000  0.86690000  1
  H  H172  1  0.35280000  0.59760000  0.28200000  1
  H  H173  1  0.74480000  0.59760000  0.78200000  1
  H  H174  1  0.02000000  0.75900000  0.85400000  1
  H  H175  1  0.23900000  0.75900000  0.35400000  1
  H  H176  1  0.44680000  0.88540000  0.41060000  1
  H  H177  1  0.93860000  0.88540000  0.91060000  1
  H  H178  1  0.32430000  0.36040000  0.14590000  1
  H  H179  1  0.53610000  0.36040000  0.64590000  1
  H  H180  1  0.22190000  0.08820000  0.00310000  1
  H  H181  1  0.36630000  0.08820000  0.50310000  1
  H  H182  1  0.53200000  0.98080000  0.44460000  1
  H  H183  1  0.94880000  0.98080000  0.94460000  1
  H  H184  1  0.42530000  0.92200000  0.90570000  1
  H  H185  1  0.99670000  0.92200000  0.40570000  1
  H  H186  1  0.61440000  0.82580000  0.35680000  1
  H  H187  1  0.71140000  0.82580000  0.85680000  1
  H  H188  1  0.89540000  0.10040000  0.49370000  1
  H  H189  1  0.70500000  0.10040000  0.99370000  1
  H  H190  1  0.33170000  0.69880000  0.78960000  1
  H  H191  1  0.86710000  0.69880000  0.28960000  1
  H  H192  1  0.91250000  0.30880000  0.59370000  1
  H  H193  1  0.89630000  0.30880000  0.09370000  1
  H  H194  1  0.69240000  0.41600000  0.12880000  1
  H  H195  1  0.22360000  0.41600000  0.62880000  1
  H  H196  1  0.42400000  0.16020000  0.99180000  1
  H  H197  1  0.23620000  0.16020000  0.49180000  1
  H  H198  1  0.55300000  0.97040000  0.38940000  1
  H  H199  1  0.91740000  0.97040000  0.88940000  1
  H  H200  1  0.84290000  0.03720000  0.41390000  1
  H  H201  1  0.69430000  0.03720000  0.91390000  1
  H  H202  1  0.30410000  0.32960000  0.05940000  1
  H  H203  1  0.52550000  0.32960000  0.55940000  1
  H  H204  1  0.94700000  0.52960000  0.64960000  1
  H  H205  1  0.08260000  0.52960000  0.14960000  1
  H  H206  1  0.58796000  0.81564000  0.28849000  1
  H  H207  1  0.72768000  0.81564000  0.78849000  1
  H  H208  1  0.99550000  0.68940000  0.70790000  1
  H  H209  1  0.19390000  0.68940000  0.20790000  1
  H  H210  1  0.26850000  0.58120000  0.64920000  1
  H  H211  1  0.81270000  0.58120000  0.14920000  1
  H  H212  1  0.34330000  0.98920000  0.85250000  1
  H  H213  1  0.14590000  0.98920000  0.35250000  1
  H  H214  1  0.22000000  0.36740000  0.03310000  1
  H  H215  1  0.64740000  0.36740000  0.53310000  1
  H  H216  1  0.83400000  0.48760000  0.57810000  1
  H  H217  1  0.15360000  0.48760000  0.07810000  1
  H  H218  1  0.35690000  0.43800000  0.04560000  1
  H  H219  1  0.58110000  0.43800000  0.54560000  1
  H  H220  1  0.17880000  0.82460000  0.70790000  1
  H  H221  1  0.14580000  0.82460000  0.20790000  1
  H  H222  1  0.62780000  0.32180000  0.95580000  1
  H  H223  1  0.19400000  0.32180000  0.45580000  1
  H  H224  1  0.08360000  0.42160000  0.50300000  1
  H  H225  1  0.83800000  0.42160000  0.00300000  1
  H  H226  1  0.82420000  0.27080000  0.42160000  1
  H  H227  1  0.94660000  0.27080000  0.92160000  1
  H  H228  1  0.69040000  0.24420000  0.40370000  1
  H  H229  1  0.05380000  0.24420000  0.90370000  1
  H  H230  1  0.86890000  0.41100000  0.47770000  1
  H  H231  1  0.04210000  0.41100000  0.97770000  1
  H  H232  1  0.20560000  0.72620000  0.63240000  1
  H  H233  1  0.02060000  0.72620000  0.13240000  1
  H  H234  1  0.38550000  0.74420000  0.12410000  1
  H  H235  1  0.85870000  0.74420000  0.62410000  1
  H  H236  1  0.61450000  0.25580000  0.87590000  1
  H  H237  1  0.14130000  0.25580000  0.37590000  1
  H  H238  1  0.79440000  0.27380000  0.36760000  1
  H  H239  1  0.97940000  0.27380000  0.86760000  1
  H  H240  1  0.13110000  0.58900000  0.52230000  1
  H  H241  1  0.95790000  0.58900000  0.02230000  1
  H  H242  1  0.30960000  0.75580000  0.59630000  1
  H  H243  1  0.94620000  0.75580000  0.09630000  1
  H  H244  1  0.17580000  0.72920000  0.57840000  1
  H  H245  1  0.05340000  0.72920000  0.07840000  1
  H  H246  1  0.91640000  0.57840000  0.49700000  1
  H  H247  1  0.16200000  0.57840000  0.99700000  1
  H  H248  1  0.37220000  0.67820000  0.04420000  1
  H  H249  1  0.80600000  0.67820000  0.54420000  1
  H  H250  1  0.82120000  0.17540000  0.29210000  1
  H  H251  1  0.85420000  0.17540000  0.79210000  1
  H  H252  1  0.64310000  0.56200000  0.95440000  1
  H  H253  1  0.41890000  0.56200000  0.45440000  1
  H  H254  1  0.16600000  0.51240000  0.42190000  1
  H  H255  1  0.84640000  0.51240000  0.92190000  1
  H  H256  1  0.78000000  0.63260000  0.96690000  1
  H  H257  1  0.35260000  0.63260000  0.46690000  1
  H  H258  1  0.65670000  0.01080000  0.14750000  1
  H  H259  1  0.85410000  0.01080000  0.64750000  1
  H  H260  1  0.73150000  0.41880000  0.35080000  1
  H  H261  1  0.18730000  0.41880000  0.85080000  1
  H  H262  1  0.00450000  0.31060000  0.29210000  1
  H  H263  1  0.80610000  0.31060000  0.79210000  1
  H  H264  1  0.41204000  0.18436000  0.71151000  1
  H  H265  1  0.27232000  0.18436000  0.21151000  1
  H  H266  1  0.05300000  0.47040000  0.35040000  1
  H  H267  1  0.91740000  0.47040000  0.85040000  1
  H  H268  1  0.69590000  0.67040000  0.94060000  1
  H  H269  1  0.47450000  0.67040000  0.44060000  1
  H  H270  1  0.15710000  0.96280000  0.58610000  1
  H  H271  1  0.30570000  0.96280000  0.08610000  1
  H  H272  1  0.44700000  0.02960000  0.61060000  1
  H  H273  1  0.08260000  0.02960000  0.11060000  1
  H  H274  1  0.57600000  0.83980000  0.00820000  1
  H  H275  1  0.76380000  0.83980000  0.50820000  1
  H  H276  1  0.30760000  0.58400000  0.87120000  1
  H  H277  1  0.77640000  0.58400000  0.37120000  1
  H  H278  1  0.08750000  0.69120000  0.40630000  1
  H  H279  1  0.10370000  0.69120000  0.90630000  1
  H  H280  1  0.66830000  0.30120000  0.21040000  1
  H  H281  1  0.13290000  0.30120000  0.71040000  1
  H  H282  1  0.10460000  0.89960000  0.50630000  1
  H  H283  1  0.29500000  0.89960000  0.00630000  1
  H  H284  1  0.38560000  0.17420000  0.64320000  1
  H  H285  1  0.28860000  0.17420000  0.14320000  1
  H  H286  1  0.57470000  0.07800000  0.09430000  1
  H  H287  1  0.00330000  0.07800000  0.59430000  1
  H  H288  1  0.46800000  0.01920000  0.55540000  1
  H  H289  1  0.05120000  0.01920000  0.05540000  1
  H  H290  1  0.77810000  0.91180000  0.99690000  1
  H  H291  1  0.63370000  0.91180000  0.49690000  1
  H  H292  1  0.67570000  0.63960000  0.85410000  1
  H  H293  1  0.46390000  0.63960000  0.35410000  1
  H  H294  1  0.55320000  0.11460000  0.58940000  1
  H  H295  1  0.06140000  0.11460000  0.08940000  1
  H  H296  1  0.98000000  0.24100000  0.14600000  1
  H  H297  1  0.76100000  0.24100000  0.64600000  1
  H  H298  1  0.64720000  0.40240000  0.71800000  1
  H  H299  1  0.25520000  0.40240000  0.21800000  1
  H  H300  1  0.24270000  0.23860000  0.63310000  1
  H  H301  1  0.49590000  0.23860000  0.13310000  1
  H  H302  1  0.91760000  0.56480000  0.29030000  1
  H  H303  1  0.14720000  0.56480000  0.79030000  1
  O  O304  1  0.01053000  0.87866000  0.80151000  1
  O  O305  1  0.36813000  0.87866000  0.30151000  1
  O  O306  1  0.86508000  0.85176000  0.26280000  1
  O  O307  1  0.48668000  0.85176000  0.76280000  1
  O  O308  1  0.61305000  0.86582000  0.26536000  1
  O  O309  1  0.75277000  0.86582000  0.76536000  1
  O  O310  1  0.85187000  0.03254000  0.32394000  1
  O  O311  1  0.68067000  0.03254000  0.82394000  1
  O  O312  1  0.19536000  0.99532000  0.79403000  1
  O  O313  1  0.29996000  0.99532000  0.29403000  1
  O  O314  1  0.39539000  0.93578000  0.73021000  1
  O  O315  1  0.04039000  0.93578000  0.23021000  1
  O  O316  1  0.95376000  0.88352000  0.69213000  1
  O  O317  1  0.42976000  0.88352000  0.19213000  1
  O  O318  1  0.04624000  0.11648000  0.30787000  1
  O  O319  1  0.57024000  0.11648000  0.80787000  1
  O  O320  1  0.60461000  0.06422000  0.26979000  1
  O  O321  1  0.95961000  0.06422000  0.76979000  1
  O  O322  1  0.80464000  0.00468000  0.20597000  1
  O  O323  1  0.70004000  0.00468000  0.70597000  1
  O  O324  1  0.14813000  0.96746000  0.67606000  1
  O  O325  1  0.31933000  0.96746000  0.17606000  1
  O  O326  1  0.38695000  0.13418000  0.73464000  1
  O  O327  1  0.24723000  0.13418000  0.23464000  1
  O  O328  1  0.13492000  0.14824000  0.73720000  1
  O  O329  1  0.51332000  0.14824000  0.23720000  1
  O  O330  1  0.98947000  0.12134000  0.19849000  1
  O  O331  1  0.63187000  0.12134000  0.69849000  1
  Si  Si332  1  0.90289000  0.50000000  0.75000000  1
  Si  Si333  1  0.09711000  0.50000000  0.25000000  1
  Si  Si334  1  0.10450000  0.26024000  0.54885000  1
  Si  Si335  1  0.65574000  0.26024000  0.04885000  1
  Si  Si336  1  0.89550000  0.73976000  0.45115000  1
  Si  Si337  1  0.34426000  0.73976000  0.95115000  1
  Zn  Zn338  1  0.49877000  0.92218000  0.25795000  1
  Zn  Zn339  1  0.92341000  0.92218000  0.75795000  1
  Zn  Zn340  1  0.78428000  0.94222000  0.26479000  1
  Zn  Zn341  1  0.65794000  0.94222000  0.76479000  1
  Zn  Zn342  1  0.21572000  0.05778000  0.73521000  1
  Zn  Zn343  1  0.34206000  0.05778000  0.23521000  1
  Zn  Zn344  1  0.50123000  0.07782000  0.74205000  1
  Zn  Zn345  1  0.07659000  0.07782000  0.24205000  1
