# generated using pymatgen
data_NiHC4O3
_symmetry_space_group_name_H-M   'P 1'
_cell_length_a   6.76130000
_cell_length_b   15.06630000
_cell_length_c   15.06631137
_cell_angle_alpha   117.80308046
_cell_angle_beta   98.60328183
_cell_angle_gamma   98.60310000
_symmetry_Int_Tables_number   1
_chemical_formula_structural   NiHC4O3
_chemical_formula_sum   'Ni6 H6 C24 O18'
_cell_volume   1299.40827707
_cell_formula_units_Z   6
loop_
 _symmetry_equiv_pos_site_id
 _symmetry_equiv_pos_as_xyz
  1  'x, y, z'
loop_
 _atom_site_type_symbol
 _atom_site_label
 _atom_site_symmetry_multiplicity
 _atom_site_fract_x
 _atom_site_fract_y
 _atom_site_fract_z
 _atom_site_occupancy
  Ni  Ni0  1  0.39720000  0.58160000  0.28100000  1
  Ni  Ni1  1  0.81560000  0.41840000  0.69940000  1
  Ni  Ni2  1  0.81560000  0.69940000  0.41840000  1
  Ni  Ni3  1  0.11620000  0.30060000  0.71900000  1
  Ni  Ni4  1  0.11620000  0.71900000  0.30060000  1
  Ni  Ni5  1  0.39720000  0.28100000  0.58160000  1
  H  H6  1  0.52800000  1.00000000  0.43000000  1
  H  H7  1  0.72400000  0.49500000  0.49500000  1
  H  H8  1  0.22900000  0.50500000  1.00000000  1
  H  H9  1  0.09800000  0.57000000  0.57000000  1
  H  H10  1  0.52800000  0.43000000  1.00000000  1
  H  H11  1  0.22900000  1.00000000  0.50500000  1
  C  C12  1  0.51150000  0.55450000  0.46100000  1
  C  C13  1  0.95700000  0.44550000  0.90650000  1
  C  C14  1  0.58020000  0.49230000  0.49230000  1
  C  C15  1  0.08790000  0.50770000  1.00000000  1
  C  C16  1  0.55260000  0.81310000  0.35770000  1
  C  C17  1  0.73950000  0.18690000  0.54460000  1
  C  C18  1  0.68670000  0.00000000  0.44710000  1
  C  C19  1  0.72140000  0.90990000  0.42530000  1
  C  C20  1  0.81150000  0.09010000  0.51540000  1
  C  C21  1  0.95700000  0.90650000  0.44550000  1
  C  C22  1  0.05050000  0.09350000  0.53900000  1
  C  C23  1  0.73950000  0.54460000  0.18690000  1
  C  C24  1  0.19490000  0.45540000  0.64230000  1
  C  C25  1  0.08790000  0.00000000  0.50770000  1
  C  C26  1  0.23960000  0.55290000  0.55290000  1
  C  C27  1  0.68670000  0.44710000  0.00000000  1
  C  C28  1  0.81150000  0.51540000  0.09010000  1
  C  C29  1  0.29610000  0.48460000  0.57470000  1
  C  C30  1  0.19490000  0.64230000  0.45540000  1
  C  C31  1  0.55260000  0.35770000  0.81310000  1
  C  C32  1  0.29610000  0.57470000  0.48460000  1
  C  C33  1  0.72140000  0.42530000  0.90990000  1
  C  C34  1  0.05050000  0.53900000  0.09350000  1
  C  C35  1  0.51150000  0.46100000  0.55450000  1
  O  O36  1  0.37290000  0.82780000  0.33190000  1
  O  O37  1  0.54510000  0.17220000  0.50410000  1
  O  O38  1  0.56610000  0.58090000  0.40640000  1
  O  O39  1  0.98520000  0.41910000  0.82550000  1
  O  O40  1  0.60940000  0.72980000  0.34740000  1
  O  O41  1  0.87960000  0.27020000  0.61760000  1
  O  O42  1  0.54510000  0.50410000  0.17220000  1
  O  O43  1  0.04100000  0.49590000  0.66810000  1
  O  O44  1  0.04100000  0.66810000  0.49590000  1
  O  O45  1  0.37290000  0.33190000  0.82780000  1
  O  O46  1  0.98520000  0.82550000  0.41910000  1
  O  O47  1  0.15970000  0.17450000  0.59360000  1
  O  O48  1  0.87960000  0.61760000  0.27020000  1
  O  O49  1  0.26200000  0.38240000  0.65260000  1
  O  O50  1  0.26200000  0.65260000  0.38240000  1
  O  O51  1  0.60940000  0.34740000  0.72980000  1
  O  O52  1  0.15970000  0.59360000  0.17450000  1
  O  O53  1  0.56610000  0.40640000  0.58090000  1
