# generated using pymatgen
data_Ni2H54C66N12O11
_symmetry_space_group_name_H-M   'P 1'
_cell_length_a   10.04200000
_cell_length_b   15.90290000
_cell_length_c   24.75300000
_cell_angle_alpha   72.88580000
_cell_angle_beta   78.29670000
_cell_angle_gamma   71.59520000
_symmetry_Int_Tables_number   1
_chemical_formula_structural   Ni2H54C66N12O11
_chemical_formula_sum   'Ni4 H108 C132 N24 O22'
_cell_volume   3558.25977359
_cell_formula_units_Z   2
loop_
 _symmetry_equiv_pos_site_id
 _symmetry_equiv_pos_as_xyz
  1  'x, y, z'
loop_
 _atom_site_type_symbol
 _atom_site_label
 _atom_site_symmetry_multiplicity
 _atom_site_fract_x
 _atom_site_fract_y
 _atom_site_fract_z
 _atom_site_occupancy
  Ni  Ni0  1  0.02719000  0.85243000  0.27123000  1
  Ni  Ni1  1  0.15085000  0.64757000  0.22877000  1
  Ni  Ni2  1  0.84915000  0.35243000  0.77123000  1
  Ni  Ni3  1  0.97281000  0.14757000  0.72877000  1
  H  H4  1  0.00800000  0.67210000  0.56390000  1
  H  H5  1  0.01620000  0.63970000  0.94290000  1
  H  H6  1  0.02610000  0.93350000  0.09490000  1
  H  H7  1  0.04590000  0.78690000  0.98690000  1
  H  H8  1  0.05450000  0.56650000  0.40510000  1
  H  H9  1  0.05460000  0.12400000  0.18820000  1
  H  H10  1  0.05540000  0.37590000  0.96270000  1
  H  H11  1  0.06840000  0.09140000  0.53940000  1
  H  H12  1  0.08120000  0.94700000  0.70020000  1
  H  H13  1  0.08750000  0.38300000  0.82960000  1
  H  H14  1  0.08800000  0.77910000  0.40190000  1
  H  H15  1  0.10360000  0.58130000  0.86110000  1
  H  H16  1  0.11020000  0.25950000  0.14970000  1
  H  H17  1  0.18030000  0.28690000  0.48690000  1
  H  H18  1  0.18200000  0.78620000  0.49160000  1
  H  H19  1  0.18640000  0.47710000  0.87370000  1
  H  H20  1  0.19680000  0.15360000  0.99820000  1
  H  H21  1  0.22760000  0.79980000  0.22900000  1
  H  H22  1  0.22810000  0.97020000  0.04660000  1
  H  H23  1  0.23030000  0.96380000  0.51720000  1
  H  H24  1  0.24400000  0.82790000  0.93610000  1
  H  H25  1  0.24490000  0.52980000  0.45340000  1
  H  H26  1  0.25130000  0.52160000  0.58400000  1
  H  H27  1  0.25640000  0.70020000  0.27100000  1
  H  H28  1  0.26150000  0.95020000  0.28780000  1
  H  H29  1  0.26900000  0.72090000  0.09810000  1
  H  H30  1  0.27160000  0.44700000  0.20020000  1
  H  H31  1  0.28870000  0.46380000  0.01720000  1
  H  H32  1  0.29970000  0.83760000  0.47820000  1
  H  H33  1  0.30010000  0.11700000  0.67040000  1
  H  H34  1  0.30080000  0.59140000  0.03940000  1
  H  H35  1  0.31610000  0.26710000  0.09190000  1
  H  H36  1  0.32420000  0.31020000  0.69500000  1
  H  H37  1  0.32490000  0.76710000  0.59190000  1
  H  H38  1  0.32940000  0.18980000  0.80500000  1
  H  H39  1  0.34860000  0.34640000  0.50180000  1
  H  H40  1  0.35550000  0.53570000  0.52750000  1
  H  H41  1  0.35690000  0.97840000  0.91600000  1
  H  H42  1  0.36680000  0.37600000  0.31180000  1
  H  H43  1  0.38450000  0.33760000  0.97820000  1
  H  H44  1  0.39400000  0.12410000  0.53730000  1
  H  H45  1  0.40120000  0.13970000  0.44290000  1
  H  H46  1  0.41270000  0.17930000  0.95790000  1
  H  H47  1  0.41870000  0.96430000  0.97250000  1
  H  H48  1  0.42200000  0.99550000  0.11050000  1
  H  H49  1  0.45010000  0.67930000  0.45790000  1
  H  H50  1  0.45400000  0.08130000  0.36110000  1
  H  H51  1  0.45980000  0.71380000  0.00840000  1
  H  H52  1  0.46280000  0.97710000  0.37370000  1
  H  H53  1  0.46290000  0.69490000  0.36170000  1
  H  H54  1  0.47200000  0.49550000  0.61050000  1
  H  H55  1  0.48050000  0.19490000  0.86170000  1
  H  H56  1  0.48060000  0.75950000  0.64970000  1
  H  H57  1  0.49950000  0.54980000  0.21220000  1
  H  H58  1  0.50050000  0.45020000  0.78780000  1
  H  H59  1  0.51940000  0.24050000  0.35030000  1
  H  H60  1  0.51950000  0.80510000  0.13830000  1
  H  H61  1  0.52800000  0.50450000  0.38950000  1
  H  H62  1  0.53710000  0.30510000  0.63830000  1
  H  H63  1  0.53720000  0.02290000  0.62630000  1
  H  H64  1  0.54020000  0.28620000  0.99160000  1
  H  H65  1  0.54600000  0.91870000  0.63890000  1
  H  H66  1  0.54990000  0.32070000  0.54210000  1
  H  H67  1  0.57800000  0.00450000  0.88950000  1
  H  H68  1  0.58130000  0.03570000  0.02750000  1
  H  H69  1  0.58730000  0.82070000  0.04210000  1
  H  H70  1  0.59880000  0.86030000  0.55710000  1
  H  H71  1  0.60600000  0.87590000  0.46270000  1
  H  H72  1  0.61550000  0.66240000  0.02180000  1
  H  H73  1  0.63320000  0.62400000  0.68820000  1
  H  H74  1  0.64310000  0.02160000  0.08400000  1
  H  H75  1  0.64450000  0.46430000  0.47250000  1
  H  H76  1  0.65140000  0.65360000  0.49820000  1
  H  H77  1  0.67060000  0.81020000  0.19500000  1
  H  H78  1  0.67510000  0.23290000  0.40810000  1
  H  H79  1  0.67580000  0.68980000  0.30500000  1
  H  H80  1  0.68390000  0.73290000  0.90810000  1
  H  H81  1  0.69920000  0.40860000  0.96060000  1
  H  H82  1  0.69990000  0.88300000  0.32960000  1
  H  H83  1  0.70030000  0.16240000  0.52180000  1
  H  H84  1  0.71130000  0.53620000  0.98280000  1
  H  H85  1  0.72840000  0.55300000  0.79980000  1
  H  H86  1  0.73100000  0.27910000  0.90190000  1
  H  H87  1  0.73850000  0.04980000  0.71220000  1
  H  H88  1  0.74360000  0.29980000  0.72900000  1
  H  H89  1  0.74870000  0.47840000  0.41600000  1
  H  H90  1  0.75510000  0.47020000  0.54660000  1
  H  H91  1  0.75600000  0.17210000  0.06390000  1
  H  H92  1  0.76970000  0.03620000  0.48280000  1
  H  H93  1  0.77190000  0.02980000  0.95340000  1
  H  H94  1  0.77240000  0.20020000  0.77100000  1
  H  H95  1  0.80320000  0.84640000  0.00180000  1
  H  H96  1  0.81360000  0.52290000  0.12630000  1
  H  H97  1  0.81800000  0.21380000  0.50840000  1
  H  H98  1  0.81970000  0.71310000  0.51310000  1
  H  H99  1  0.88980000  0.74050000  0.85030000  1
  H  H100  1  0.89640000  0.41870000  0.13890000  1
  H  H101  1  0.91200000  0.22090000  0.59810000  1
  H  H102  1  0.91250000  0.61700000  0.17040000  1
  H  H103  1  0.91880000  0.05300000  0.29980000  1
  H  H104  1  0.93160000  0.90860000  0.46060000  1
  H  H105  1  0.94460000  0.62410000  0.03730000  1
  H  H106  1  0.94540000  0.87600000  0.81180000  1
  H  H107  1  0.94550000  0.43350000  0.59490000  1
  H  H108  1  0.95410000  0.21310000  0.01310000  1
  H  H109  1  0.97390000  0.06650000  0.90510000  1
  H  H110  1  0.98380000  0.36030000  0.05710000  1
  H  H111  1  0.99200000  0.32790000  0.43610000  1
  C  C112  1  0.00920000  0.43350000  0.82790000  1
  C  C113  1  0.00960000  0.58290000  0.96570000  1
  C  C114  1  0.01137000  0.85806000  0.04520000  1
  C  C115  1  0.01790000  0.65060000  0.53180000  1
  C  C116  1  0.03260000  0.42670000  0.97770000  1
  C  C117  1  0.04000000  0.05440000  0.52360000  1
  C  C118  1  0.04300000  0.51010000  0.94150000  1
  C  C119  1  0.04420000  0.58790000  0.43730000  1
  C  C120  1  0.06399000  0.19262000  0.82520000  1
  C  C121  1  0.06940000  0.91210000  0.06270000  1
  C  C122  1  0.08060000  0.82580000  0.99840000  1
  C  C123  1  0.08181000  0.30738000  0.67480000  1
  C  C124  1  0.08537000  0.35806000  0.54520000  1
  C  C125  1  0.09390000  0.52000000  0.87840000  1
  C  C126  1  0.09520000  0.32580000  0.49840000  1
  C  C127  1  0.10020000  0.92320000  0.48600000  1
  C  C128  1  0.12593000  0.16164000  0.92570000  1
  C  C129  1  0.13740000  0.97810000  0.50990000  1
  C  C130  1  0.13940000  0.12550000  0.16490000  1
  C  C131  1  0.13970000  0.82090000  0.38350000  1
  C  C132  1  0.14730000  0.59440000  0.51400000  1
  C  C133  1  0.15530000  0.97400000  0.68760000  1
  C  C134  1  0.15840000  0.56550000  0.46650000  1
  C  C135  1  0.16594000  0.17472000  0.86700000  1
  C  C136  1  0.17300000  0.20630000  0.14170000  1
  C  C137  1  0.18310000  0.47400000  0.18760000  1
  C  C138  1  0.19040000  0.93450000  0.03350000  1
  C  C139  1  0.20030000  0.84940000  0.96820000  1
  C  C140  1  0.20240000  0.95400000  0.18240000  1
  C  C141  1  0.20740000  0.84170000  0.46970000  1
  C  C142  1  0.20766000  0.32528000  0.63300000  1
  C  C143  1  0.21327000  0.33836000  0.57430000  1
  C  C144  1  0.22130000  0.16260000  0.95900000  1
  C  C145  1  0.23260000  0.04510000  0.15350000  1
  C  C146  1  0.23430000  0.91360000  0.32260000  1
  C  C147  1  0.25570000  0.90560000  0.98600000  1
  C  C148  1  0.26950000  0.56490000  0.54850000  1
  C  C149  1  0.27060000  0.06650000  0.67210000  1
  C  C150  1  0.29510000  0.21130000  0.10730000  1
  C  C151  1  0.30100000  0.18470000  0.84370000  1
  C  C152  1  0.32940000  0.31530000  0.65630000  1
  C  C153  1  0.33880000  0.54600000  0.31760000  1
  C  C154  1  0.34290000  0.33740000  0.54100000  1
  C  C155  1  0.34410000  0.67910000  0.11650000  1
  C  C156  1  0.35190000  0.17660000  0.93500000  1
  C  C157  1  0.35860000  0.04860000  0.11840000  1
  C  C158  1  0.37460000  0.47810000  0.00990000  1
  C  C159  1  0.38200000  0.55440000  0.02360000  1
  C  C160  1  0.38290000  0.93510000  0.95150000  1
  C  C161  1  0.38450000  0.63130000  0.59530000  1
  C  C162  1  0.38630000  0.71130000  0.60730000  1
  C  C163  1  0.38890000  0.13130000  0.09530000  1
  C  C164  1  0.39190000  0.18680000  0.87760000  1
  C  C165  1  0.42980000  0.37450000  0.33510000  1
  C  C166  1  0.43120000  0.45490000  0.34650000  1
  C  C167  1  0.43700000  0.07330000  0.52230000  1
  C  C168  1  0.44180000  0.08290000  0.46570000  1
  C  C169  1  0.45630000  0.31320000  0.62240000  1
  C  C170  1  0.46350000  0.32340000  0.56500000  1
  C  C171  1  0.47050000  0.58640000  0.17740000  1
  C  C172  1  0.47440000  0.54860000  0.61840000  1
  C  C173  1  0.47900000  0.70630000  0.64170000  1
  C  C174  1  0.48120000  0.34170000  0.96970000  1
  C  C175  1  0.49060000  0.42320000  0.98600000  1
  C  C176  1  0.49230000  0.98000000  0.62160000  1
  C  C177  1  0.49460000  0.98990000  0.55850000  1
  C  C178  1  0.50540000  0.01010000  0.44150000  1
  C  C179  1  0.50770000  0.02000000  0.37840000  1
  C  C180  1  0.50940000  0.57680000  0.01400000  1
  C  C181  1  0.51880000  0.65830000  0.03030000  1
  C  C182  1  0.52100000  0.29370000  0.35830000  1
  C  C183  1  0.52560000  0.45140000  0.38160000  1
  C  C184  1  0.52950000  0.41360000  0.82260000  1
  C  C185  1  0.53650000  0.67660000  0.43500000  1
  C  C186  1  0.54370000  0.68680000  0.37760000  1
  C  C187  1  0.55820000  0.91710000  0.53430000  1
  C  C188  1  0.56300000  0.92670000  0.47770000  1
  C  C189  1  0.56880000  0.54510000  0.65350000  1
  C  C190  1  0.57020000  0.62550000  0.66490000  1
  C  C191  1  0.60810000  0.81320000  0.12240000  1
  C  C192  1  0.61110000  0.86870000  0.90470000  1
  C  C193  1  0.61370000  0.28870000  0.39270000  1
  C  C194  1  0.61550000  0.36870000  0.40470000  1
  C  C195  1  0.61710000  0.06490000  0.04850000  1
  C  C196  1  0.61800000  0.44560000  0.97640000  1
  C  C197  1  0.62540000  0.52190000  0.99010000  1
  C  C198  1  0.64140000  0.95140000  0.88160000  1
  C  C199  1  0.64810000  0.82340000  0.06500000  1
  C  C200  1  0.65590000  0.32090000  0.88350000  1
  C  C201  1  0.65710000  0.66260000  0.45900000  1
  C  C202  1  0.66120000  0.45400000  0.68240000  1
  C  C203  1  0.67060000  0.68470000  0.34370000  1
  C  C204  1  0.69900000  0.81530000  0.15630000  1
  C  C205  1  0.70490000  0.78870000  0.89270000  1
  C  C206  1  0.72940000  0.93350000  0.32790000  1
  C  C207  1  0.73050000  0.43510000  0.45150000  1
  C  C208  1  0.74430000  0.09440000  0.01400000  1
  C  C209  1  0.76570000  0.08640000  0.67740000  1
  C  C210  1  0.76740000  0.95490000  0.84650000  1
  C  C211  1  0.77870000  0.83740000  0.04100000  1
  C  C212  1  0.78673000  0.66164000  0.42570000  1
  C  C213  1  0.79234000  0.67472000  0.36700000  1
  C  C214  1  0.79260000  0.15830000  0.53030000  1
  C  C215  1  0.79760000  0.04600000  0.81760000  1
  C  C216  1  0.79970000  0.15060000  0.03180000  1
  C  C217  1  0.80960000  0.06550000  0.96650000  1
  C  C218  1  0.81690000  0.52600000  0.81240000  1
  C  C219  1  0.82700000  0.79370000  0.85830000  1
  C  C220  1  0.83406000  0.82528000  0.13300000  1
  C  C221  1  0.84160000  0.43450000  0.53350000  1
  C  C222  1  0.84470000  0.02600000  0.31240000  1
  C  C223  1  0.85270000  0.40560000  0.48600000  1
  C  C224  1  0.86030000  0.17910000  0.61650000  1
  C  C225  1  0.86060000  0.87450000  0.83510000  1
  C  C226  1  0.86260000  0.02190000  0.49010000  1
  C  C227  1  0.87407000  0.83836000  0.07430000  1
  C  C228  1  0.89980000  0.07680000  0.51400000  1
  C  C229  1  0.90480000  0.67420000  0.50160000  1
  C  C230  1  0.90610000  0.48000000  0.12160000  1
  C  C231  1  0.91463000  0.64194000  0.45480000  1
  C  C232  1  0.91819000  0.69262000  0.32520000  1
  C  C233  1  0.91940000  0.17420000  0.00160000  1
  C  C234  1  0.93060000  0.08790000  0.93730000  1
  C  C235  1  0.93601000  0.80738000  0.17480000  1
  C  C236  1  0.95580000  0.41210000  0.56270000  1
  C  C237  1  0.95700000  0.48990000  0.05850000  1
  C  C238  1  0.96000000  0.94560000  0.47640000  1
  C  C239  1  0.96740000  0.57330000  0.02230000  1
  C  C240  1  0.98210000  0.34940000  0.46820000  1
  C  C241  1  0.98863000  0.14194000  0.95480000  1
  C  C242  1  0.99040000  0.41710000  0.03430000  1
  C  C243  1  0.99080000  0.56650000  0.17210000  1
  N  N244  1  0.00451000  0.49748000  0.15090000  1
  N  N245  1  0.10213000  0.55447000  0.19627000  1
  N  N246  1  0.13132000  0.43596000  0.16040000  1
  N  N247  1  0.14713000  0.05447000  0.69627000  1
  N  N248  1  0.14934000  0.85979000  0.32793000  1
  N  N249  1  0.21342000  0.84996000  0.40840000  1
  N  N250  1  0.27232000  0.93596000  0.66040000  1
  N  N251  1  0.27481000  0.91038000  0.37020000  1
  N  N252  1  0.33706000  0.64021000  0.17207000  1
  N  N253  1  0.34711000  0.99748000  0.65090000  1
  N  N254  1  0.44461000  0.41038000  0.87020000  1
  N  N255  1  0.47178000  0.65004000  0.09160000  1
  N  N256  1  0.52822000  0.34996000  0.90840000  1
  N  N257  1  0.55539000  0.58962000  0.12980000  1
  N  N258  1  0.65289000  0.00252000  0.34910000  1
  N  N259  1  0.66294000  0.35979000  0.82793000  1
  N  N260  1  0.72519000  0.08962000  0.62980000  1
  N  N261  1  0.72768000  0.06404000  0.33960000  1
  N  N262  1  0.78658000  0.15004000  0.59160000  1
  N  N263  1  0.85066000  0.14021000  0.67207000  1
  N  N264  1  0.85287000  0.94553000  0.30373000  1
  N  N265  1  0.86868000  0.56404000  0.83960000  1
  N  N266  1  0.89787000  0.44553000  0.80373000  1
  N  N267  1  0.99549000  0.50252000  0.84910000  1
  O  O268  1  0.03507000  0.34968000  0.71318000  1
  O  O269  1  0.03682000  0.24684000  0.66752000  1
  O  O270  1  0.04882000  0.74684000  0.16752000  1
  O  O271  1  0.08466000  0.95772000  0.21276000  1
  O  O272  1  0.09793000  0.15032000  0.78682000  1
  O  O273  1  0.20490000  0.75000000  0.25000000  1
  O  O274  1  0.25514000  0.54228000  0.28724000  1
  O  O275  1  0.28475000  0.64412000  0.55958000  1
  O  O276  1  0.29052000  0.88296000  0.17620000  1
  O  O277  1  0.34968000  0.61704000  0.32380000  1
  O  O278  1  0.48845000  0.85588000  0.94042000  1
  O  O279  1  0.51155000  0.14412000  0.05958000  1
  O  O280  1  0.65032000  0.38296000  0.67620000  1
  O  O281  1  0.70948000  0.11704000  0.82380000  1
  O  O282  1  0.71525000  0.35588000  0.44042000  1
  O  O283  1  0.74486000  0.45772000  0.71276000  1
  O  O284  1  0.79510000  0.25000000  0.75000000  1
  O  O285  1  0.90207000  0.84968000  0.21318000  1
  O  O286  1  0.91534000  0.04228000  0.78724000  1
  O  O287  1  0.95118000  0.25316000  0.83248000  1
  O  O288  1  0.96318000  0.75316000  0.33248000  1
  O  O289  1  0.96493000  0.65032000  0.28682000  1
