# generated using pymatgen
data_ZnH6(C3N2)2
_symmetry_space_group_name_H-M   'P 1'
_cell_length_a   14.57565875
_cell_length_b   14.57550000
_cell_length_c   14.57550000
_cell_angle_alpha   109.47100000
_cell_angle_beta   109.47144127
_cell_angle_gamma   109.47144127
_symmetry_Int_Tables_number   1
_chemical_formula_structural   ZnH6(C3N2)2
_chemical_formula_sum   'Zn6 H36 C36 N24'
_cell_volume   2383.70244647
_cell_formula_units_Z   6
loop_
 _symmetry_equiv_pos_site_id
 _symmetry_equiv_pos_as_xyz
  1  'x, y, z'
loop_
 _atom_site_type_symbol
 _atom_site_label
 _atom_site_symmetry_multiplicity
 _atom_site_fract_x
 _atom_site_fract_y
 _atom_site_fract_z
 _atom_site_occupancy
  Zn  Zn0  1  0.25000000  0.75000000  0.50000000  1
  Zn  Zn1  1  0.50000000  0.25000000  0.75000000  1
  Zn  Zn2  1  0.25000000  0.50000000  0.75000000  1
  Zn  Zn3  1  0.75000000  0.50000000  0.25000000  1
  Zn  Zn4  1  0.50000000  0.75000000  0.25000000  1
  Zn  Zn5  1  0.75000000  0.25000000  0.50000000  1
  H  H6  1  0.35840000  0.80300000  0.35840000  1
  H  H7  1  0.55540000  0.19700000  0.55540000  1
  H  H8  1  0.43490000  0.66900000  0.53730000  1
  H  H9  1  0.76590000  0.33100000  0.86830000  1
  H  H10  1  0.10240000  0.56510000  0.23410000  1
  H  H11  1  0.53730000  0.43490000  0.66900000  1
  H  H12  1  0.44460000  0.00000000  0.64160000  1
  H  H13  1  0.43490000  0.53730000  0.66900000  1
  H  H14  1  0.89760000  0.46270000  0.13170000  1
  H  H15  1  0.13170000  0.89760000  0.46270000  1
  H  H16  1  0.23410000  0.10240000  0.56510000  1
  H  H17  1  0.19700000  0.55540000  0.55540000  1
  H  H18  1  0.64160000  0.44460000  0.00000000  1
  H  H19  1  0.33100000  0.86830000  0.76590000  1
  H  H20  1  0.46270000  0.13170000  0.89760000  1
  H  H21  1  0.35840000  0.35840000  0.80300000  1
  H  H22  1  0.00000000  0.64160000  0.44460000  1
  H  H23  1  0.10240000  0.23410000  0.56510000  1
  H  H24  1  0.86830000  0.76590000  0.33100000  1
  H  H25  1  0.33100000  0.76590000  0.86830000  1
  H  H26  1  0.56510000  0.23410000  0.10240000  1
  H  H27  1  0.44460000  0.64160000  1.00000000  1
  H  H28  1  0.80300000  0.35840000  0.35840000  1
  H  H29  1  0.76590000  0.86830000  0.33100000  1
  H  H30  1  0.89760000  0.13170000  0.46270000  1
  H  H31  1  0.55540000  0.55540000  0.19700000  1
  H  H32  1  0.00000000  0.44460000  0.64160000  1
  H  H33  1  0.46270000  0.89760000  0.13170000  1
  H  H34  1  0.56510000  0.10240000  0.23410000  1
  H  H35  1  0.13170000  0.46270000  0.89760000  1
  H  H36  1  0.66900000  0.53730000  0.43490000  1
  H  H37  1  0.64160000  0.00000000  0.44460000  1
  H  H38  1  0.23410000  0.56510000  0.10240000  1
  H  H39  1  0.66900000  0.43490000  0.53730000  1
  H  H40  1  0.53730000  0.66900000  0.43490000  1
  H  H41  1  0.86830000  0.33100000  0.76590000  1
  C  C42  1  0.38327000  0.75874000  0.38327000  1
  C  C43  1  0.62453000  0.24126000  0.62453000  1
  C  C44  1  0.42580000  0.69120000  0.48200000  1
  C  C45  1  0.73460000  0.30880000  0.79080000  1
  C  C46  1  0.05620000  0.57420000  0.26540000  1
  C  C47  1  0.48200000  0.42580000  0.69120000  1
  C  C48  1  0.37547000  0.00000000  0.61673000  1
  C  C49  1  0.42580000  0.48200000  0.69120000  1
  C  C50  1  0.94380000  0.51800000  0.20920000  1
  C  C51  1  0.20920000  0.94380000  0.51800000  1
  C  C52  1  0.26540000  0.05620000  0.57420000  1
  C  C53  1  0.38327000  0.38327000  0.75874000  1
  C  C54  1  0.00000000  0.61673000  0.37547000  1
  C  C55  1  0.24126000  0.62453000  0.62453000  1
  C  C56  1  0.61673000  0.37547000  0.00000000  1
  C  C57  1  0.30880000  0.79080000  0.73460000  1
  C  C58  1  0.51800000  0.20920000  0.94380000  1
  C  C59  1  0.30880000  0.73460000  0.79080000  1
  C  C60  1  0.57420000  0.26540000  0.05620000  1
  C  C61  1  0.05620000  0.26540000  0.57420000  1
  C  C62  1  0.79080000  0.73460000  0.30880000  1
  C  C63  1  0.73460000  0.79080000  0.30880000  1
  C  C64  1  0.94380000  0.20920000  0.51800000  1
  C  C65  1  0.62453000  0.62453000  0.24126000  1
  C  C66  1  0.00000000  0.37547000  0.61673000  1
  C  C67  1  0.37547000  0.61673000  1.00000000  1
  C  C68  1  0.75874000  0.38327000  0.38327000  1
  C  C69  1  0.51800000  0.94380000  0.20920000  1
  C  C70  1  0.57420000  0.05620000  0.26540000  1
  C  C71  1  0.20920000  0.51800000  0.94380000  1
  C  C72  1  0.69120000  0.48200000  0.42580000  1
  C  C73  1  0.61673000  0.00000000  0.37547000  1
  C  C74  1  0.26540000  0.57420000  0.05620000  1
  C  C75  1  0.69120000  0.42580000  0.48200000  1
  C  C76  1  0.48200000  0.69120000  0.42580000  1
  C  C77  1  0.79080000  0.30880000  0.73460000  1
  N  N78  1  0.35373000  0.72781000  0.44744000  1
  N  N79  1  0.62592000  0.27219000  0.71963000  1
  N  N80  1  0.28037000  0.90629000  0.55256000  1
  N  N81  1  0.37408000  0.09371000  0.64627000  1
  N  N82  1  0.09371000  0.64627000  0.37408000  1
  N  N83  1  0.44744000  0.35373000  0.72781000  1
  N  N84  1  0.27219000  0.71963000  0.62592000  1
  N  N85  1  0.55256000  0.28037000  0.90629000  1
  N  N86  1  0.35373000  0.44744000  0.72781000  1
  N  N87  1  0.90629000  0.55256000  0.28037000  1
  N  N88  1  0.27219000  0.62592000  0.71963000  1
  N  N89  1  0.64627000  0.37408000  0.09371000  1
  N  N90  1  0.09371000  0.37408000  0.64627000  1
  N  N91  1  0.71963000  0.62592000  0.27219000  1
  N  N92  1  0.28037000  0.55256000  0.90629000  1
  N  N93  1  0.72781000  0.44744000  0.35373000  1
  N  N94  1  0.62592000  0.71963000  0.27219000  1
  N  N95  1  0.90629000  0.28037000  0.55256000  1
  N  N96  1  0.37408000  0.64627000  0.09371000  1
  N  N97  1  0.72781000  0.35373000  0.44744000  1
  N  N98  1  0.55256000  0.90629000  0.28037000  1
  N  N99  1  0.64627000  0.09371000  0.37408000  1
  N  N100  1  0.44744000  0.72781000  0.35373000  1
  N  N101  1  0.71963000  0.27219000  0.62592000  1
