# generated using pymatgen
data_ZnH12C18NO4
_symmetry_space_group_name_H-M   'P 1'
_cell_length_a   13.01330000
_cell_length_b   13.01330000
_cell_length_c   13.92200000
_cell_angle_alpha   106.37300000
_cell_angle_beta   106.37300000
_cell_angle_gamma   91.27340000
_symmetry_Int_Tables_number   1
_chemical_formula_structural   ZnH12C18NO4
_chemical_formula_sum   'Zn4 H48 C72 N4 O16'
_cell_volume   2157.01172414
_cell_formula_units_Z   4
loop_
 _symmetry_equiv_pos_site_id
 _symmetry_equiv_pos_as_xyz
  1  'x, y, z'
loop_
 _atom_site_type_symbol
 _atom_site_label
 _atom_site_symmetry_multiplicity
 _atom_site_fract_x
 _atom_site_fract_y
 _atom_site_fract_z
 _atom_site_occupancy
  Zn  Zn0  1  0.18750000  0.86678000  0.36662000  1
  Zn  Zn1  1  0.13322000  0.81250000  0.13338000  1
  Zn  Zn2  1  0.86678000  0.18750000  0.86662000  1
  Zn  Zn3  1  0.81250000  0.13322000  0.63338000  1
  H  H4  1  0.08940000  0.98040000  0.85160000  1
  H  H5  1  0.07600000  0.95300000  0.00330000  1
  H  H6  1  0.04700000  0.92400000  0.49670000  1
  H  H7  1  0.01960000  0.91060000  0.64840000  1
  H  H8  1  0.53710000  0.89930000  0.43870000  1
  H  H9  1  0.71540000  0.89920000  0.45120000  1
  H  H10  1  0.40670000  0.87270000  0.55050000  1
  H  H11  1  0.85890000  0.86090000  0.36150000  1
  H  H12  1  0.86090000  0.85890000  0.86150000  1
  H  H13  1  0.45570000  0.80770000  0.12250000  1
  H  H14  1  0.30930000  0.79870000  0.72080000  1
  H  H15  1  0.59830000  0.78650000  0.03550000  1
  H  H16  1  0.78000000  0.78580000  0.04640000  1
  H  H17  1  0.78580000  0.78000000  0.54640000  1
  H  H18  1  0.41670000  0.77950000  0.60600000  1
  H  H19  1  0.34990000  0.75330000  0.48460000  1
  H  H20  1  0.89920000  0.71540000  0.95120000  1
  H  H21  1  0.20130000  0.69070000  0.77920000  1
  H  H22  1  0.24670000  0.65010000  0.01540000  1
  H  H23  1  0.78650000  0.59830000  0.53550000  1
  H  H24  1  0.12730000  0.59330000  0.94950000  1
  H  H25  1  0.22050000  0.58330000  0.89400000  1
  H  H26  1  0.19230000  0.54430000  0.37750000  1
  H  H27  1  0.89930000  0.53710000  0.93870000  1
  H  H28  1  0.10070000  0.46290000  0.06130000  1
  H  H29  1  0.80770000  0.45570000  0.62250000  1
  H  H30  1  0.77950000  0.41670000  0.10600000  1
  H  H31  1  0.87270000  0.40670000  0.05050000  1
  H  H32  1  0.21350000  0.40170000  0.46450000  1
  H  H33  1  0.75330000  0.34990000  0.98460000  1
  H  H34  1  0.79870000  0.30930000  0.22080000  1
  H  H35  1  0.10080000  0.28460000  0.04880000  1
  H  H36  1  0.65010000  0.24670000  0.51540000  1
  H  H37  1  0.58330000  0.22050000  0.39400000  1
  H  H38  1  0.21420000  0.22000000  0.45360000  1
  H  H39  1  0.22000000  0.21420000  0.95360000  1
  H  H40  1  0.40170000  0.21350000  0.96450000  1
  H  H41  1  0.69070000  0.20130000  0.27920000  1
  H  H42  1  0.54430000  0.19230000  0.87750000  1
  H  H43  1  0.13910000  0.14110000  0.13850000  1
  H  H44  1  0.14110000  0.13910000  0.63850000  1
  H  H45  1  0.59330000  0.12730000  0.44950000  1
  H  H46  1  0.28460000  0.10080000  0.54880000  1
  H  H47  1  0.46290000  0.10070000  0.56130000  1
  H  H48  1  0.98040000  0.08940000  0.35160000  1
  H  H49  1  0.95300000  0.07600000  0.50330000  1
  H  H50  1  0.92400000  0.04700000  0.99670000  1
  H  H51  1  0.91060000  0.01960000  0.14840000  1
  C  C52  1  0.83070000  0.95450000  0.71420000  1
  C  C53  1  0.10940000  0.91580000  0.86720000  1
  C  C54  1  0.10180000  0.89880000  0.95700000  1
  C  C55  1  0.10120000  0.89820000  0.54300000  1
  C  C56  1  0.08420000  0.89060000  0.63280000  1
  C  C57  1  0.55810000  0.87990000  0.37640000  1
  C  C58  1  0.66320000  0.87960000  0.38390000  1
  C  C59  1  0.16260000  0.85300000  0.70140000  1
  C  C60  1  0.47790000  0.85170000  0.27780000  1
  C  C61  1  0.69710000  0.85050000  0.29250000  1
  C  C62  1  0.36120000  0.84980000  0.27070000  1
  C  C63  1  0.80540000  0.84800000  0.29550000  1
  C  C64  1  0.14700000  0.83740000  0.79860000  1
  C  C65  1  0.82750000  0.83690000  0.70670000  1
  C  C66  1  0.26890000  0.83610000  0.58330000  1
  C  C67  1  0.95450000  0.83070000  0.21420000  1
  C  C68  1  0.83690000  0.82750000  0.20670000  1
  C  C69  1  0.50910000  0.82530000  0.18900000  1
  C  C70  1  0.25490000  0.82530000  0.67550000  1
  C  C71  1  0.61730000  0.82390000  0.19330000  1
  C  C72  1  0.36930000  0.80790000  0.55350000  1
  C  C73  1  0.84800000  0.80540000  0.79550000  1
  C  C74  1  0.75890000  0.80250000  0.10860000  1
  C  C75  1  0.65080000  0.80200000  0.10230000  1
  C  C76  1  0.80250000  0.75890000  0.60860000  1
  C  C77  1  0.17470000  0.74510000  0.82450000  1
  C  C78  1  0.16390000  0.73110000  0.91670000  1
  C  C79  1  0.85050000  0.69710000  0.79250000  1
  C  C80  1  0.87960000  0.66320000  0.88390000  1
  C  C81  1  0.80200000  0.65080000  0.60230000  1
  C  C82  1  0.15020000  0.63880000  0.22930000  1
  C  C83  1  0.19210000  0.63070000  0.94650000  1
  C  C84  1  0.82390000  0.61730000  0.69330000  1
  C  C85  1  0.87990000  0.55810000  0.87640000  1
  C  C86  1  0.14830000  0.52210000  0.22220000  1
  C  C87  1  0.82530000  0.50910000  0.68900000  1
  C  C88  1  0.17470000  0.49090000  0.31100000  1
  C  C89  1  0.85170000  0.47790000  0.77780000  1
  C  C90  1  0.12010000  0.44190000  0.12360000  1
  C  C91  1  0.17610000  0.38270000  0.30670000  1
  C  C92  1  0.80790000  0.36930000  0.05350000  1
  C  C93  1  0.84980000  0.36120000  0.77070000  1
  C  C94  1  0.19800000  0.34920000  0.39770000  1
  C  C95  1  0.12040000  0.33680000  0.11610000  1
  C  C96  1  0.14950000  0.30290000  0.20750000  1
  C  C97  1  0.83610000  0.26890000  0.08330000  1
  C  C98  1  0.82530000  0.25490000  0.17550000  1
  C  C99  1  0.19750000  0.24110000  0.39140000  1
  C  C100  1  0.34920000  0.19800000  0.89770000  1
  C  C101  1  0.24110000  0.19750000  0.89140000  1
  C  C102  1  0.15200000  0.19460000  0.20450000  1
  C  C103  1  0.63070000  0.19210000  0.44650000  1
  C  C104  1  0.38270000  0.17610000  0.80670000  1
  C  C105  1  0.74510000  0.17470000  0.32450000  1
  C  C106  1  0.49090000  0.17470000  0.81100000  1
  C  C107  1  0.16310000  0.17250000  0.79330000  1
  C  C108  1  0.04550000  0.16930000  0.78580000  1
  C  C109  1  0.73110000  0.16390000  0.41670000  1
  C  C110  1  0.17250000  0.16310000  0.29330000  1
  C  C111  1  0.85300000  0.16260000  0.20140000  1
  C  C112  1  0.19460000  0.15200000  0.70450000  1
  C  C113  1  0.63880000  0.15020000  0.72930000  1
  C  C114  1  0.30290000  0.14950000  0.70750000  1
  C  C115  1  0.52210000  0.14830000  0.72220000  1
  C  C116  1  0.83740000  0.14700000  0.29860000  1
  C  C117  1  0.33680000  0.12040000  0.61610000  1
  C  C118  1  0.44190000  0.12010000  0.62360000  1
  C  C119  1  0.91580000  0.10940000  0.36720000  1
  C  C120  1  0.89880000  0.10180000  0.45700000  1
  C  C121  1  0.89820000  0.10120000  0.04300000  1
  C  C122  1  0.89060000  0.08420000  0.13280000  1
  C  C123  1  0.16930000  0.04550000  0.28580000  1
  N  N124  1  0.19110000  0.87090000  0.51590000  1
  N  N125  1  0.12910000  0.80890000  0.98410000  1
  N  N126  1  0.87090000  0.19110000  0.01590000  1
  N  N127  1  0.80890000  0.12910000  0.48410000  1
  O  O128  1  0.16440000  0.97880000  0.19880000  1
  O  O129  1  0.83032000  0.97768000  0.63190000  1
  O  O130  1  0.33651000  0.88889000  0.35460000  1
  O  O131  1  0.02120000  0.83560000  0.30120000  1
  O  O132  1  0.97768000  0.83032000  0.13190000  1
  O  O133  1  0.29480000  0.80800000  0.18110000  1
  O  O134  1  0.19200000  0.70520000  0.31890000  1
  O  O135  1  0.11111000  0.66349000  0.14540000  1
  O  O136  1  0.88889000  0.33651000  0.85460000  1
  O  O137  1  0.80800000  0.29480000  0.68110000  1
  O  O138  1  0.70520000  0.19200000  0.81890000  1
  O  O139  1  0.02232000  0.16968000  0.86810000  1
  O  O140  1  0.97880000  0.16440000  0.69880000  1
  O  O141  1  0.66349000  0.11111000  0.64540000  1
  O  O142  1  0.16968000  0.02232000  0.36810000  1
  O  O143  1  0.83560000  0.02120000  0.80120000  1
