# generated using pymatgen
data_CdH16C24(NO2)2
_symmetry_space_group_name_H-M   'P 1'
_cell_length_a   9.70550000
_cell_length_b   14.78450000
_cell_length_c   17.84980000
_cell_angle_alpha   90.00000000
_cell_angle_beta   90.00000000
_cell_angle_gamma   94.74850000
_symmetry_Int_Tables_number   1
_chemical_formula_structural   CdH16C24(NO2)2
_chemical_formula_sum   'Cd4 H64 C96 N8 O16'
_cell_volume   2552.49384735
_cell_formula_units_Z   4
loop_
 _symmetry_equiv_pos_site_id
 _symmetry_equiv_pos_as_xyz
  1  'x, y, z'
loop_
 _atom_site_type_symbol
 _atom_site_label
 _atom_site_symmetry_multiplicity
 _atom_site_fract_x
 _atom_site_fract_y
 _atom_site_fract_z
 _atom_site_occupancy
  Cd  Cd0  1  0.86833000  0.01926000  0.91841000  1
  Cd  Cd1  1  0.86833000  0.51926000  0.58159000  1
  Cd  Cd2  1  0.13167000  0.48074000  0.41841000  1
  Cd  Cd3  1  0.13167000  0.98074000  0.08159000  1
  H  H4  1  0.95570000  0.74540000  0.26070000  1
  H  H5  1  0.95570000  0.24540000  0.23930000  1
  H  H6  1  0.92950000  0.82510000  0.85250000  1
  H  H7  1  0.92950000  0.32510000  0.64750000  1
  H  H8  1  0.92030000  0.27090000  0.36990000  1
  H  H9  1  0.92030000  0.77090000  0.13010000  1
  H  H10  1  0.88580000  0.44130000  0.29980000  1
  H  H11  1  0.88580000  0.94130000  0.20020000  1
  H  H12  1  0.84720000  0.21500000  0.99050000  1
  H  H13  1  0.84720000  0.71500000  0.50950000  1
  H  H14  1  0.76420000  0.00620000  0.29220000  1
  H  H15  1  0.76420000  0.50620000  0.20780000  1
  H  H16  1  0.75910000  0.27830000  0.76590000  1
  H  H17  1  0.75910000  0.77830000  0.73410000  1
  H  H18  1  0.73050000  0.79600000  0.42590000  1
  H  H19  1  0.73050000  0.29600000  0.07410000  1
  H  H20  1  0.64720000  0.85600000  0.32870000  1
  H  H21  1  0.64720000  0.35600000  0.17130000  1
  H  H22  1  0.63260000  0.49230000  0.45400000  1
  H  H23  1  0.63260000  0.99230000  0.04600000  1
  H  H24  1  0.63190000  0.85630000  0.81640000  1
  H  H25  1  0.63190000  0.35630000  0.68360000  1
  H  H26  1  0.58740000  0.10090000  0.32330000  1
  H  H27  1  0.58740000  0.60090000  0.17670000  1
  H  H28  1  0.57250000  0.28150000  0.48990000  1
  H  H29  1  0.57250000  0.78150000  0.01010000  1
  H  H30  1  0.53490000  0.33090000  0.91460000  1
  H  H31  1  0.53490000  0.83090000  0.58540000  1
  H  H32  1  0.52150000  0.43300000  0.25480000  1
  H  H33  1  0.52150000  0.93300000  0.24520000  1
  H  H34  1  0.51160000  0.56580000  0.36830000  1
  H  H35  1  0.51160000  0.06580000  0.13170000  1
  H  H36  1  0.48840000  0.93420000  0.86830000  1
  H  H37  1  0.48840000  0.43420000  0.63170000  1
  H  H38  1  0.47850000  0.06700000  0.75480000  1
  H  H39  1  0.47850000  0.56700000  0.74520000  1
  H  H40  1  0.46510000  0.16910000  0.41460000  1
  H  H41  1  0.46510000  0.66910000  0.08540000  1
  H  H42  1  0.42750000  0.21850000  0.98990000  1
  H  H43  1  0.42750000  0.71850000  0.51010000  1
  H  H44  1  0.41260000  0.39910000  0.82330000  1
  H  H45  1  0.41260000  0.89910000  0.67670000  1
  H  H46  1  0.36810000  0.64370000  0.31640000  1
  H  H47  1  0.36810000  0.14370000  0.18360000  1
  H  H48  1  0.36740000  0.00770000  0.95400000  1
  H  H49  1  0.36740000  0.50770000  0.54600000  1
  H  H50  1  0.35280000  0.64400000  0.82870000  1
  H  H51  1  0.35280000  0.14400000  0.67130000  1
  H  H52  1  0.26950000  0.70400000  0.92590000  1
  H  H53  1  0.26950000  0.20400000  0.57410000  1
  H  H54  1  0.24090000  0.22170000  0.26590000  1
  H  H55  1  0.24090000  0.72170000  0.23410000  1
  H  H56  1  0.23580000  0.49380000  0.79220000  1
  H  H57  1  0.23580000  0.99380000  0.70780000  1
  H  H58  1  0.15280000  0.28500000  0.49050000  1
  H  H59  1  0.15280000  0.78500000  0.00950000  1
  H  H60  1  0.11420000  0.05870000  0.79980000  1
  H  H61  1  0.11420000  0.55870000  0.70020000  1
  H  H62  1  0.07970000  0.22910000  0.86990000  1
  H  H63  1  0.07970000  0.72910000  0.63010000  1
  H  H64  1  0.07050000  0.67490000  0.35250000  1
  H  H65  1  0.07050000  0.17490000  0.14750000  1
  H  H66  1  0.04430000  0.75460000  0.76070000  1
  H  H67  1  0.04430000  0.25460000  0.73930000  1
  C  C68  1  0.99120000  0.86020000  0.82240000  1
  C  C69  1  0.99120000  0.36020000  0.67760000  1
  C  C70  1  0.93930000  0.68300000  0.26740000  1
  C  C71  1  0.93930000  0.18300000  0.23260000  1
  C  C72  1  0.90090000  0.50350000  0.29200000  1
  C  C73  1  0.90090000  0.00350000  0.20800000  1
  C  C74  1  0.84570000  0.13400000  0.27740000  1
  C  C75  1  0.84570000  0.63400000  0.22260000  1
  C  C76  1  0.82960000  0.24910000  0.38000000  1
  C  C77  1  0.82960000  0.74910000  0.12000000  1
  C  C78  1  0.82720000  0.04240000  0.26360000  1
  C  C79  1  0.82720000  0.54240000  0.23640000  1
  C  C80  1  0.82450000  0.36320000  0.48468000  1
  C  C81  1  0.82450000  0.86320000  0.01532000  1
  C  C82  1  0.77860000  0.68450000  0.48050000  1
  C  C83  1  0.77860000  0.18450000  0.01950000  1
  C  C84  1  0.76750000  0.17760000  0.33720000  1
  C  C85  1  0.76750000  0.67760000  0.16280000  1
  C  C86  1  0.75810000  0.28790000  0.43730000  1
  C  C87  1  0.75810000  0.78790000  0.06270000  1
  C  C88  1  0.72640000  0.10970000  0.81570000  1
  C  C89  1  0.72640000  0.60970000  0.68430000  1
  C  C90  1  0.70870000  0.73380000  0.43030000  1
  C  C91  1  0.70870000  0.23380000  0.06970000  1
  C  C92  1  0.67810000  0.75010000  0.75410000  1
  C  C93  1  0.67810000  0.25010000  0.74590000  1
  C  C94  1  0.65340000  0.55440000  0.44790000  1
  C  C95  1  0.65340000  0.05440000  0.05210000  1
  C  C96  1  0.63770000  0.16210000  0.76540000  1
  C  C97  1  0.63770000  0.66210000  0.73460000  1
  C  C98  1  0.63040000  0.14810000  0.35140000  1
  C  C99  1  0.63040000  0.64810000  0.14860000  1
  C  C100  1  0.62110000  0.25660000  0.45110000  1
  C  C101  1  0.62110000  0.75660000  0.04890000  1
  C  C102  1  0.60460000  0.69070000  0.38590000  1
  C  C103  1  0.60460000  0.19070000  0.11410000  1
  C  C104  1  0.60070000  0.79730000  0.80290000  1
  C  C105  1  0.60070000  0.29730000  0.69710000  1
  C  C106  1  0.57940000  0.59830000  0.39640000  1
  C  C107  1  0.57940000  0.09830000  0.10360000  1
  C  C108  1  0.56470000  0.82820000  0.31010000  1
  C  C109  1  0.56470000  0.32820000  0.18990000  1
  C  C110  1  0.55770000  0.18820000  0.40680000  1
  C  C111  1  0.55770000  0.68820000  0.09320000  1
  C  C112  1  0.52290000  0.74120000  0.33250000  1
  C  C113  1  0.52290000  0.24120000  0.16750000  1
  C  C114  1  0.51190000  0.62470000  0.76090000  1
  C  C115  1  0.51190000  0.12470000  0.73910000  1
  C  C116  1  0.48810000  0.87530000  0.26090000  1
  C  C117  1  0.48810000  0.37530000  0.23910000  1
  C  C118  1  0.47710000  0.75880000  0.83250000  1
  C  C119  1  0.47710000  0.25880000  0.66750000  1
  C  C120  1  0.44230000  0.31180000  0.90680000  1
  C  C121  1  0.44230000  0.81180000  0.59320000  1
  C  C122  1  0.43530000  0.67180000  0.81010000  1
  C  C123  1  0.43530000  0.17180000  0.68990000  1
  C  C124  1  0.42060000  0.90170000  0.89640000  1
  C  C125  1  0.42060000  0.40170000  0.60360000  1
  C  C126  1  0.39930000  0.70270000  0.30290000  1
  C  C127  1  0.39930000  0.20270000  0.19710000  1
  C  C128  1  0.39540000  0.80930000  0.88590000  1
  C  C129  1  0.39540000  0.30930000  0.61410000  1
  C  C130  1  0.37890000  0.24340000  0.95110000  1
  C  C131  1  0.37890000  0.74340000  0.54890000  1
  C  C132  1  0.36960000  0.35190000  0.85140000  1
  C  C133  1  0.36960000  0.85190000  0.64860000  1
  C  C134  1  0.36230000  0.33790000  0.26540000  1
  C  C135  1  0.36230000  0.83790000  0.23460000  1
  C  C136  1  0.34660000  0.94560000  0.94790000  1
  C  C137  1  0.34660000  0.44560000  0.55210000  1
  C  C138  1  0.32190000  0.74990000  0.25410000  1
  C  C139  1  0.32190000  0.24990000  0.24590000  1
  C  C140  1  0.29130000  0.76620000  0.93030000  1
  C  C141  1  0.29130000  0.26620000  0.56970000  1
  C  C142  1  0.27360000  0.39030000  0.31570000  1
  C  C143  1  0.27360000  0.89030000  0.18430000  1
  C  C144  1  0.24190000  0.21210000  0.93730000  1
  C  C145  1  0.24190000  0.71210000  0.56270000  1
  C  C146  1  0.23250000  0.32240000  0.83720000  1
  C  C147  1  0.23250000  0.82240000  0.66280000  1
  C  C148  1  0.22140000  0.81550000  0.98050000  1
  C  C149  1  0.22140000  0.31550000  0.51950000  1
  C  C150  1  0.17550000  0.13680000  0.98468000  1
  C  C151  1  0.17550000  0.63680000  0.51532000  1
  C  C152  1  0.17280000  0.45760000  0.76360000  1
  C  C153  1  0.17280000  0.95760000  0.73640000  1
  C  C154  1  0.17040000  0.25090000  0.88000000  1
  C  C155  1  0.17040000  0.75090000  0.62000000  1
  C  C156  1  0.15430000  0.36600000  0.77740000  1
  C  C157  1  0.15430000  0.86600000  0.72260000  1
  C  C158  1  0.09910000  0.99650000  0.79200000  1
  C  C159  1  0.09910000  0.49650000  0.70800000  1
  C  C160  1  0.06070000  0.81700000  0.76740000  1
  C  C161  1  0.06070000  0.31700000  0.73260000  1
  C  C162  1  0.00880000  0.63980000  0.32240000  1
  C  C163  1  0.00880000  0.13980000  0.17760000  1
  N  N164  1  0.99290000  0.55090000  0.33503000  1
  N  N165  1  0.99290000  0.05090000  0.16497000  1
  N  N166  1  0.75360000  0.59490000  0.49002000  1
  N  N167  1  0.75360000  0.09490000  0.00998000  1
  N  N168  1  0.24640000  0.90510000  0.99002000  1
  N  N169  1  0.24640000  0.40510000  0.50998000  1
  N  N170  1  0.00710000  0.94910000  0.83503000  1
  N  N171  1  0.00710000  0.44910000  0.66497000  1
  O  O172  1  0.93440000  0.40310000  0.46388000  1
  O  O173  1  0.93440000  0.90310000  0.03612000  1
  O  O174  1  0.83970000  0.14654000  0.83767000  1
  O  O175  1  0.83970000  0.64654000  0.66233000  1
  O  O176  1  0.76190000  0.88438000  0.95786000  1
  O  O177  1  0.76190000  0.38438000  0.54214000  1
  O  O178  1  0.68380000  0.03060000  0.83360000  1
  O  O179  1  0.68380000  0.53060000  0.66640000  1
  O  O180  1  0.31620000  0.46940000  0.33360000  1
  O  O181  1  0.31620000  0.96940000  0.16640000  1
  O  O182  1  0.23810000  0.61562000  0.45786000  1
  O  O183  1  0.23810000  0.11562000  0.04214000  1
  O  O184  1  0.16030000  0.35346000  0.33767000  1
  O  O185  1  0.16030000  0.85346000  0.16233000  1
  O  O186  1  0.06560000  0.09690000  0.96388000  1
  O  O187  1  0.06560000  0.59690000  0.53612000  1
