# generated using pymatgen
data_Cr3Cd2H24C36N6Cl8O13
_symmetry_space_group_name_H-M   'P 1'
_cell_length_a   19.37071533
_cell_length_b   19.37071533
_cell_length_c   23.76400000
_cell_angle_alpha   90.00000000
_cell_angle_beta   90.00000000
_cell_angle_gamma   104.37714906
_symmetry_Int_Tables_number   1
_chemical_formula_structural   Cr3Cd2H24C36N6Cl8O13
_chemical_formula_sum   'Cr12 Cd8 H96 C144 N24 Cl32 O52'
_cell_volume   8637.58255487
_cell_formula_units_Z   4
loop_
 _symmetry_equiv_pos_site_id
 _symmetry_equiv_pos_as_xyz
  1  'x, y, z'
loop_
 _atom_site_type_symbol
 _atom_site_label
 _atom_site_symmetry_multiplicity
 _atom_site_fract_x
 _atom_site_fract_y
 _atom_site_fract_z
 _atom_site_occupancy
  C  C0  1  0.90450000  0.09350000  0.15670000  1
  C  C1  1  0.59350000  0.40450000  0.34330000  1
  C  C2  1  0.40450000  0.59350000  0.84330000  1
  C  C3  1  0.09350000  0.90450000  0.65670000  1
  C  C4  1  0.91610000  0.06110000  0.10740000  1
  C  C5  1  0.56110000  0.41610000  0.39260000  1
  C  C6  1  0.41610000  0.56110000  0.89260000  1
  C  C7  1  0.06110000  0.91610000  0.60740000  1
  C  C8  1  0.86610000  0.03350000  0.31700000  1
  C  C9  1  0.53350000  0.36610000  0.18300000  1
  C  C10  1  0.36610000  0.53350000  0.68300000  1
  C  C11  1  0.03350000  0.86610000  0.81700000  1
  C  C12  1  0.85510000  0.03010000  0.55590000  1
  C  C13  1  0.53010000  0.35510000  0.94410000  1
  C  C14  1  0.35510000  0.53010000  0.44410000  1
  C  C15  1  0.03010000  0.85510000  0.05590000  1
  C  C16  1  0.89500000  0.96240000  0.39130000  1
  C  C17  1  0.46240000  0.39500000  0.10870000  1
  C  C18  1  0.39500000  0.46240000  0.60870000  1
  C  C19  1  0.96240000  0.89500000  0.89130000  1
  C  C20  1  0.86160000  0.96840000  0.34100000  1
  C  C21  1  0.46840000  0.36160000  0.15900000  1
  C  C22  1  0.36160000  0.46840000  0.65900000  1
  C  C23  1  0.96840000  0.86160000  0.84100000  1
  C  C24  1  0.79610000  0.02850000  0.58690000  1
  C  C25  1  0.52850000  0.29610000  0.91310000  1
  C  C26  1  0.29610000  0.52850000  0.41310000  1
  C  C27  1  0.02850000  0.79610000  0.08690000  1
  C  C28  1  0.71760000  0.09060000  0.85450000  1
  C  C29  1  0.59060000  0.21760000  0.64550000  1
  C  C30  1  0.21760000  0.59060000  0.14550000  1
  C  C31  1  0.09060000  0.71760000  0.35450000  1
  C  C32  1  0.87820000  0.92400000  0.58760000  1
  C  C33  1  0.42400000  0.37820000  0.91240000  1
  C  C34  1  0.37820000  0.42400000  0.41240000  1
  C  C35  1  0.92400000  0.87820000  0.08760000  1
  C  C36  1  0.74850000  0.04850000  0.88890000  1
  C  C37  1  0.54850000  0.24850000  0.61110000  1
  C  C38  1  0.24850000  0.54850000  0.11110000  1
  C  C39  1  0.04850000  0.74850000  0.38890000  1
  C  C40  1  0.77350000  0.96970000  0.62050000  1
  C  C41  1  0.46970000  0.27350000  0.87950000  1
  C  C42  1  0.27350000  0.46970000  0.37950000  1
  C  C43  1  0.96970000  0.77350000  0.12050000  1
  C  C44  1  0.81660000  0.91640000  0.62130000  1
  C  C45  1  0.41640000  0.31660000  0.87870000  1
  C  C46  1  0.31660000  0.41640000  0.37870000  1
  C  C47  1  0.91640000  0.81660000  0.12130000  1
  C  C48  1  0.81850000  0.90310000  0.31590000  1
  C  C49  1  0.40310000  0.31850000  0.18410000  1
  C  C50  1  0.31850000  0.40310000  0.68410000  1
  C  C51  1  0.90310000  0.81850000  0.81590000  1
  C  C52  1  0.74160000  0.97720000  0.87570000  1
  C  C53  1  0.47720000  0.24160000  0.62430000  1
  C  C54  1  0.24160000  0.47720000  0.12430000  1
  C  C55  1  0.97720000  0.74160000  0.37570000  1
  C  C56  1  0.67290000  0.98990000  0.79370000  1
  C  C57  1  0.48990000  0.17290000  0.70630000  1
  C  C58  1  0.17290000  0.48990000  0.20630000  1
  C  C59  1  0.98990000  0.67290000  0.29370000  1
  C  C60  1  0.70390000  0.94790000  0.82810000  1
  C  C61  1  0.44790000  0.20390000  0.67190000  1
  C  C62  1  0.20390000  0.44790000  0.17190000  1
  C  C63  1  0.94790000  0.70390000  0.32810000  1
  C  C64  1  0.79430000  0.84870000  0.65690000  1
  C  C65  1  0.34870000  0.29430000  0.84310000  1
  C  C66  1  0.29430000  0.34870000  0.34310000  1
  C  C67  1  0.84870000  0.79430000  0.15690000  1
  C  C68  1  0.69620000  0.87500000  0.81160000  1
  C  C69  1  0.37500000  0.19620000  0.68840000  1
  C  C70  1  0.19620000  0.37500000  0.18840000  1
  C  C71  1  0.87500000  0.69620000  0.31160000  1
  C  C72  1  0.62500000  0.80380000  0.31160000  1
  C  C73  1  0.30380000  0.12500000  0.18840000  1
  C  C74  1  0.12500000  0.30380000  0.68840000  1
  C  C75  1  0.80380000  0.62500000  0.81160000  1
  C  C76  1  0.65130000  0.70570000  0.15690000  1
  C  C77  1  0.20570000  0.15130000  0.34310000  1
  C  C78  1  0.15130000  0.20570000  0.84310000  1
  C  C79  1  0.70570000  0.65130000  0.65690000  1
  C  C80  1  0.55210000  0.79610000  0.32810000  1
  C  C81  1  0.29610000  0.05210000  0.17190000  1
  C  C82  1  0.05210000  0.29610000  0.67190000  1
  C  C83  1  0.79610000  0.55210000  0.82810000  1
  C  C84  1  0.51010000  0.82710000  0.29370000  1
  C  C85  1  0.32710000  0.01010000  0.20630000  1
  C  C86  1  0.01010000  0.32710000  0.70630000  1
  C  C87  1  0.82710000  0.51010000  0.79370000  1
  C  C88  1  0.52280000  0.75840000  0.37570000  1
  C  C89  1  0.25840000  0.02280000  0.12430000  1
  C  C90  1  0.02280000  0.25840000  0.62430000  1
  C  C91  1  0.75840000  0.52280000  0.87570000  1
  C  C92  1  0.59690000  0.68150000  0.81590000  1
  C  C93  1  0.18150000  0.09690000  0.68410000  1
  C  C94  1  0.09690000  0.18150000  0.18410000  1
  C  C95  1  0.68150000  0.59690000  0.31590000  1
  C  C96  1  0.58360000  0.68340000  0.12130000  1
  C  C97  1  0.18340000  0.08360000  0.37870000  1
  C  C98  1  0.08360000  0.18340000  0.87870000  1
  C  C99  1  0.68340000  0.58360000  0.62130000  1
  C  C100  1  0.53030000  0.72650000  0.12050000  1
  C  C101  1  0.22650000  0.03030000  0.37950000  1
  C  C102  1  0.03030000  0.22650000  0.87950000  1
  C  C103  1  0.72650000  0.53030000  0.62050000  1
  C  C104  1  0.45150000  0.75150000  0.38890000  1
  C  C105  1  0.25150000  0.95150000  0.11110000  1
  C  C106  1  0.95150000  0.25150000  0.61110000  1
  C  C107  1  0.75150000  0.45150000  0.88890000  1
  C  C108  1  0.57600000  0.62180000  0.08760000  1
  C  C109  1  0.12180000  0.07600000  0.41240000  1
  C  C110  1  0.07600000  0.12180000  0.91240000  1
  C  C111  1  0.62180000  0.57600000  0.58760000  1
  C  C112  1  0.40940000  0.78240000  0.35450000  1
  C  C113  1  0.28240000  0.90940000  0.14550000  1
  C  C114  1  0.90940000  0.28240000  0.64550000  1
  C  C115  1  0.78240000  0.40940000  0.85450000  1
  C  C116  1  0.47150000  0.70390000  0.08690000  1
  C  C117  1  0.20390000  0.97150000  0.41310000  1
  C  C118  1  0.97150000  0.20390000  0.91310000  1
  C  C119  1  0.70390000  0.47150000  0.58690000  1
  C  C120  1  0.53160000  0.63840000  0.84100000  1
  C  C121  1  0.13840000  0.03160000  0.65900000  1
  C  C122  1  0.03160000  0.13840000  0.15900000  1
  C  C123  1  0.63840000  0.53160000  0.34100000  1
  C  C124  1  0.53760000  0.60500000  0.89130000  1
  C  C125  1  0.10500000  0.03760000  0.60870000  1
  C  C126  1  0.03760000  0.10500000  0.10870000  1
  C  C127  1  0.60500000  0.53760000  0.39130000  1
  C  C128  1  0.46990000  0.64490000  0.05590000  1
  C  C129  1  0.14490000  0.96990000  0.44410000  1
  C  C130  1  0.96990000  0.14490000  0.94410000  1
  C  C131  1  0.64490000  0.46990000  0.55590000  1
  C  C132  1  0.46650000  0.63390000  0.81700000  1
  C  C133  1  0.13390000  0.96650000  0.68300000  1
  C  C134  1  0.96650000  0.13390000  0.18300000  1
  C  C135  1  0.63390000  0.46650000  0.31700000  1
  C  C136  1  0.43890000  0.58390000  0.60740000  1
  C  C137  1  0.08390000  0.93890000  0.89260000  1
  C  C138  1  0.93890000  0.08390000  0.39260000  1
  C  C139  1  0.58390000  0.43890000  0.10740000  1
  C  C140  1  0.40650000  0.59550000  0.65670000  1
  C  C141  1  0.09550000  0.90650000  0.84330000  1
  C  C142  1  0.90650000  0.09550000  0.34330000  1
  C  C143  1  0.59550000  0.40650000  0.15670000  1
  Cd  Cd144  1  0.00000000  0.00000000  0.00000000  1
  Cd  Cd145  1  0.00000000  0.00000000  0.50000000  1
  Cd  Cd146  1  0.50000000  0.50000000  0.00000000  1
  Cd  Cd147  1  0.50000000  0.50000000  0.50000000  1
  Cd  Cd148  1  0.61950000  0.11950000  0.75000000  1
  Cd  Cd149  1  0.11950000  0.61950000  0.25000000  1
  Cd  Cd150  1  0.38050000  0.88050000  0.25000000  1
  Cd  Cd151  1  0.88050000  0.38050000  0.75000000  1
  Cl  Cl152  1  0.72830000  0.16310000  0.69910000  1
  Cl  Cl153  1  0.66310000  0.22830000  0.80090000  1
  Cl  Cl154  1  0.22830000  0.66310000  0.30090000  1
  Cl  Cl155  1  0.16310000  0.72830000  0.19910000  1
  Cl  Cl156  1  0.86548000  0.96668000  0.98358000  1
  Cl  Cl157  1  0.46668000  0.36548000  0.51642000  1
  Cl  Cl158  1  0.36548000  0.46668000  0.01642000  1
  Cl  Cl159  1  0.96668000  0.86548000  0.48358000  1
  Cl  Cl160  1  0.66940000  0.08140000  0.66740000  1
  Cl  Cl161  1  0.58140000  0.16940000  0.83260000  1
  Cl  Cl162  1  0.16940000  0.58140000  0.33260000  1
  Cl  Cl163  1  0.08140000  0.66940000  0.16740000  1
  Cl  Cl164  1  0.53410000  0.00310000  0.71370000  1
  Cl  Cl165  1  0.50310000  0.03410000  0.78630000  1
  Cl  Cl166  1  0.03410000  0.50310000  0.28630000  1
  Cl  Cl167  1  0.00310000  0.53410000  0.21370000  1
  Cl  Cl168  1  0.49690000  0.96590000  0.21370000  1
  Cl  Cl169  1  0.46590000  0.99690000  0.28630000  1
  Cl  Cl170  1  0.99690000  0.46590000  0.78630000  1
  Cl  Cl171  1  0.96590000  0.49690000  0.71370000  1
  Cl  Cl172  1  0.41860000  0.83060000  0.16740000  1
  Cl  Cl173  1  0.33060000  0.91860000  0.33260000  1
  Cl  Cl174  1  0.91860000  0.33060000  0.83260000  1
  Cl  Cl175  1  0.83060000  0.41860000  0.66740000  1
  Cl  Cl176  1  0.53332000  0.63452000  0.48358000  1
  Cl  Cl177  1  0.13452000  0.03332000  0.01642000  1
  Cl  Cl178  1  0.03332000  0.13452000  0.51642000  1
  Cl  Cl179  1  0.63452000  0.53332000  0.98358000  1
  Cl  Cl180  1  0.33690000  0.77170000  0.19910000  1
  Cl  Cl181  1  0.27170000  0.83690000  0.30090000  1
  Cl  Cl182  1  0.83690000  0.27170000  0.80090000  1
  Cl  Cl183  1  0.77170000  0.33690000  0.69910000  1
  Cr  Cr184  1  0.73467000  0.83025000  0.21987000  1
  Cr  Cr185  1  0.33025000  0.23467000  0.28013000  1
  Cr  Cr186  1  0.23467000  0.33025000  0.78013000  1
  Cr  Cr187  1  0.83025000  0.73467000  0.71987000  1
  Cr  Cr188  1  0.75000000  0.75000000  0.83898000  1
  Cr  Cr189  1  0.75000000  0.75000000  0.33898000  1
  Cr  Cr190  1  0.25000000  0.25000000  0.66102000  1
  Cr  Cr191  1  0.25000000  0.25000000  0.16102000  1
  Cr  Cr192  1  0.66975000  0.76533000  0.71987000  1
  Cr  Cr193  1  0.26533000  0.16975000  0.78013000  1
  Cr  Cr194  1  0.16975000  0.26533000  0.28013000  1
  Cr  Cr195  1  0.76533000  0.66975000  0.21987000  1
  H  H196  1  0.85810000  0.08890000  0.17180000  1
  H  H197  1  0.58890000  0.35810000  0.32820000  1
  H  H198  1  0.35810000  0.58890000  0.82820000  1
  H  H199  1  0.08890000  0.85810000  0.67180000  1
  H  H200  1  0.86840000  0.06920000  0.53060000  1
  H  H201  1  0.56920000  0.36840000  0.96940000  1
  H  H202  1  0.36840000  0.56920000  0.46940000  1
  H  H203  1  0.06920000  0.86840000  0.03060000  1
  H  H204  1  0.87550000  0.03270000  0.08880000  1
  H  H205  1  0.53270000  0.37550000  0.41120000  1
  H  H206  1  0.37550000  0.53270000  0.91120000  1
  H  H207  1  0.03270000  0.87550000  0.58880000  1
  H  H208  1  0.84210000  0.03690000  0.28260000  1
  H  H209  1  0.53690000  0.34210000  0.21740000  1
  H  H210  1  0.34210000  0.53690000  0.71740000  1
  H  H211  1  0.03690000  0.84210000  0.78260000  1
  H  H212  1  0.72230000  0.13930000  0.86350000  1
  H  H213  1  0.63930000  0.22230000  0.63650000  1
  H  H214  1  0.22230000  0.63930000  0.13650000  1
  H  H215  1  0.13930000  0.72230000  0.36350000  1
  H  H216  1  0.77440000  0.06860000  0.92150000  1
  H  H217  1  0.56860000  0.27440000  0.57850000  1
  H  H218  1  0.27440000  0.56860000  0.07850000  1
  H  H219  1  0.06860000  0.77440000  0.42150000  1
  H  H220  1  0.77200000  0.06560000  0.58550000  1
  H  H221  1  0.56560000  0.27200000  0.91450000  1
  H  H222  1  0.27200000  0.56560000  0.41450000  1
  H  H223  1  0.06560000  0.77200000  0.08550000  1
  H  H224  1  0.88990000  0.91670000  0.40760000  1
  H  H225  1  0.41670000  0.38990000  0.09240000  1
  H  H226  1  0.38990000  0.41670000  0.59240000  1
  H  H227  1  0.91670000  0.88990000  0.90760000  1
  H  H228  1  0.88860000  0.90440000  0.08730000  1
  H  H229  1  0.40440000  0.38860000  0.41270000  1
  H  H230  1  0.38860000  0.40440000  0.91270000  1
  H  H231  1  0.90440000  0.88860000  0.58730000  1
  H  H232  1  0.76280000  0.94860000  0.89930000  1
  H  H233  1  0.44860000  0.26280000  0.60070000  1
  H  H234  1  0.26280000  0.44860000  0.10070000  1
  H  H235  1  0.94860000  0.76280000  0.39930000  1
  H  H236  1  0.73150000  0.96330000  0.64250000  1
  H  H237  1  0.46330000  0.23150000  0.85750000  1
  H  H238  1  0.23150000  0.46330000  0.35750000  1
  H  H239  1  0.96330000  0.73150000  0.14250000  1
  H  H240  1  0.64710000  0.96990000  0.76120000  1
  H  H241  1  0.46990000  0.14710000  0.73880000  1
  H  H242  1  0.14710000  0.46990000  0.23880000  1
  H  H243  1  0.96990000  0.64710000  0.26120000  1
  H  H244  1  0.53010000  0.85290000  0.26120000  1
  H  H245  1  0.35290000  0.03010000  0.23880000  1
  H  H246  1  0.03010000  0.35290000  0.73880000  1
  H  H247  1  0.85290000  0.53010000  0.76120000  1
  H  H248  1  0.53670000  0.76850000  0.14250000  1
  H  H249  1  0.26850000  0.03670000  0.35750000  1
  H  H250  1  0.03670000  0.26850000  0.85750000  1
  H  H251  1  0.76850000  0.53670000  0.64250000  1
  H  H252  1  0.55140000  0.73720000  0.39930000  1
  H  H253  1  0.23720000  0.05140000  0.10070000  1
  H  H254  1  0.05140000  0.23720000  0.60070000  1
  H  H255  1  0.73720000  0.55140000  0.89930000  1
  H  H256  1  0.59560000  0.61140000  0.58730000  1
  H  H257  1  0.11140000  0.09560000  0.91270000  1
  H  H258  1  0.09560000  0.11140000  0.41270000  1
  H  H259  1  0.61140000  0.59560000  0.08730000  1
  H  H260  1  0.58330000  0.61010000  0.90760000  1
  H  H261  1  0.11010000  0.08330000  0.59240000  1
  H  H262  1  0.08330000  0.11010000  0.09240000  1
  H  H263  1  0.61010000  0.58330000  0.40760000  1
  H  H264  1  0.43440000  0.72800000  0.08550000  1
  H  H265  1  0.22800000  0.93440000  0.41450000  1
  H  H266  1  0.93440000  0.22800000  0.91450000  1
  H  H267  1  0.72800000  0.43440000  0.58550000  1
  H  H268  1  0.43140000  0.72560000  0.42150000  1
  H  H269  1  0.22560000  0.93140000  0.07850000  1
  H  H270  1  0.93140000  0.22560000  0.57850000  1
  H  H271  1  0.72560000  0.43140000  0.92150000  1
  H  H272  1  0.36070000  0.77770000  0.36350000  1
  H  H273  1  0.27770000  0.86070000  0.13650000  1
  H  H274  1  0.86070000  0.27770000  0.63650000  1
  H  H275  1  0.77770000  0.36070000  0.86350000  1
  H  H276  1  0.46310000  0.65790000  0.78260000  1
  H  H277  1  0.15790000  0.96310000  0.71740000  1
  H  H278  1  0.96310000  0.15790000  0.21740000  1
  H  H279  1  0.65790000  0.46310000  0.28260000  1
  H  H280  1  0.46730000  0.62450000  0.58880000  1
  H  H281  1  0.12450000  0.96730000  0.91120000  1
  H  H282  1  0.96730000  0.12450000  0.41120000  1
  H  H283  1  0.62450000  0.46730000  0.08880000  1
  H  H284  1  0.43080000  0.63160000  0.03060000  1
  H  H285  1  0.13160000  0.93080000  0.46940000  1
  H  H286  1  0.93080000  0.13160000  0.96940000  1
  H  H287  1  0.63160000  0.43080000  0.53060000  1
  H  H288  1  0.41110000  0.64190000  0.67180000  1
  H  H289  1  0.14190000  0.91110000  0.82820000  1
  H  H290  1  0.91110000  0.14190000  0.32820000  1
  H  H291  1  0.64190000  0.41110000  0.17180000  1
  N  N292  1  0.93400000  0.01920000  0.41730000  1
  N  N293  1  0.51920000  0.43400000  0.08270000  1
  N  N294  1  0.43400000  0.51920000  0.58270000  1
  N  N295  1  0.01920000  0.93400000  0.91730000  1
  N  N296  1  0.89860000  0.98460000  0.55500000  1
  N  N297  1  0.48460000  0.39860000  0.94500000  1
  N  N298  1  0.39860000  0.48460000  0.44500000  1
  N  N299  1  0.98460000  0.89860000  0.05500000  1
  N  N300  1  0.67980000  0.06120000  0.80690000  1
  N  N301  1  0.56120000  0.17980000  0.69310000  1
  N  N302  1  0.17980000  0.56120000  0.19310000  1
  N  N303  1  0.06120000  0.67980000  0.30690000  1
  N  N304  1  0.43880000  0.82020000  0.30690000  1
  N  N305  1  0.32020000  0.93880000  0.19310000  1
  N  N306  1  0.93880000  0.32020000  0.69310000  1
  N  N307  1  0.82020000  0.43880000  0.80690000  1
  N  N308  1  0.51540000  0.60140000  0.05500000  1
  N  N309  1  0.10140000  0.01540000  0.44500000  1
  N  N310  1  0.01540000  0.10140000  0.94500000  1
  N  N311  1  0.60140000  0.51540000  0.55500000  1
  N  N312  1  0.48080000  0.56600000  0.91730000  1
  N  N313  1  0.06600000  0.98080000  0.58270000  1
  N  N314  1  0.98080000  0.06600000  0.08270000  1
  N  N315  1  0.56600000  0.48080000  0.41730000  1
  O  O316  1  0.79660000  0.90440000  0.26650000  1
  O  O317  1  0.40440000  0.29660000  0.23350000  1
  O  O318  1  0.29660000  0.40440000  0.73350000  1
  O  O319  1  0.90440000  0.79660000  0.76650000  1
  O  O320  1  0.81700000  0.83920000  0.16860000  1
  O  O321  1  0.33920000  0.31700000  0.33140000  1
  O  O322  1  0.31700000  0.33920000  0.83140000  1
  O  O323  1  0.83920000  0.81700000  0.66860000  1
  O  O324  1  0.80150000  0.84850000  0.34690000  1
  O  O325  1  0.34850000  0.30150000  0.15310000  1
  O  O326  1  0.30150000  0.34850000  0.65310000  1
  O  O327  1  0.84850000  0.80150000  0.84690000  1
  O  O328  1  0.72550000  0.83890000  0.84410000  1
  O  O329  1  0.33890000  0.22550000  0.65590000  1
  O  O330  1  0.22550000  0.33890000  0.15590000  1
  O  O331  1  0.83890000  0.72550000  0.34410000  1
  O  O332  1  0.72830000  0.83350000  0.66620000  1
  O  O333  1  0.33350000  0.22830000  0.83380000  1
  O  O334  1  0.22830000  0.33350000  0.33380000  1
  O  O335  1  0.83350000  0.72830000  0.16620000  1
  O  O336  1  0.66710000  0.85090000  0.76500000  1
  O  O337  1  0.35090000  0.16710000  0.73500000  1
  O  O338  1  0.16710000  0.35090000  0.23500000  1
  O  O339  1  0.85090000  0.66710000  0.26500000  1
  O  O340  1  0.75000000  0.75000000  0.75740000  1
  O  O341  1  0.75000000  0.75000000  0.25740000  1
  O  O342  1  0.25000000  0.25000000  0.74260000  1
  O  O343  1  0.25000000  0.25000000  0.24260000  1
  O  O344  1  0.64910000  0.83290000  0.26500000  1
  O  O345  1  0.33290000  0.14910000  0.23500000  1
  O  O346  1  0.14910000  0.33290000  0.73500000  1
  O  O347  1  0.83290000  0.64910000  0.76500000  1
  O  O348  1  0.66650000  0.77170000  0.16620000  1
  O  O349  1  0.27170000  0.16650000  0.33380000  1
  O  O350  1  0.16650000  0.27170000  0.83380000  1
  O  O351  1  0.77170000  0.66650000  0.66620000  1
  O  O352  1  0.66110000  0.77450000  0.34410000  1
  O  O353  1  0.27450000  0.16110000  0.15590000  1
  O  O354  1  0.16110000  0.27450000  0.65590000  1
  O  O355  1  0.77450000  0.66110000  0.84410000  1
  O  O356  1  0.65150000  0.69850000  0.84690000  1
  O  O357  1  0.19850000  0.15150000  0.65310000  1
  O  O358  1  0.15150000  0.19850000  0.15310000  1
  O  O359  1  0.69850000  0.65150000  0.34690000  1
  O  O360  1  0.66080000  0.68300000  0.66860000  1
  O  O361  1  0.18300000  0.16080000  0.83140000  1
  O  O362  1  0.16080000  0.18300000  0.33140000  1
  O  O363  1  0.68300000  0.66080000  0.16860000  1
  O  O364  1  0.59560000  0.70340000  0.76650000  1
  O  O365  1  0.20340000  0.09560000  0.73350000  1
  O  O366  1  0.09560000  0.20340000  0.23350000  1
  O  O367  1  0.70340000  0.59560000  0.26650000  1
