# generated using pymatgen
data_Cd5H48C84(NO6)4
_symmetry_space_group_name_H-M   'P 1'
_cell_length_a   14.41440000
_cell_length_b   15.56410000
_cell_length_c   23.39640000
_cell_angle_alpha   90.00000000
_cell_angle_beta   90.00000000
_cell_angle_gamma   107.63200000
_symmetry_Int_Tables_number   1
_chemical_formula_structural   Cd5H48C84(NO6)4
_chemical_formula_sum   'Cd10 H96 C168 N8 O48'
_cell_volume   5002.33052216
_cell_formula_units_Z   2
loop_
 _symmetry_equiv_pos_site_id
 _symmetry_equiv_pos_as_xyz
  1  'x, y, z'
loop_
 _atom_site_type_symbol
 _atom_site_label
 _atom_site_symmetry_multiplicity
 _atom_site_fract_x
 _atom_site_fract_y
 _atom_site_fract_z
 _atom_site_occupancy
  Cd  Cd0  1  0.00000000  0.00000000  0.00000000  1
  Cd  Cd1  1  0.00000000  0.50000000  0.50000000  1
  Cd  Cd2  1  0.75316000  0.91748000  0.94474000  1
  Cd  Cd3  1  0.75316000  0.41748000  0.55526000  1
  Cd  Cd4  1  0.72629000  0.80748000  0.80844000  1
  Cd  Cd5  1  0.72629000  0.30748000  0.69156000  1
  Cd  Cd6  1  0.27371000  0.69252000  0.30844000  1
  Cd  Cd7  1  0.27371000  0.19252000  0.19156000  1
  Cd  Cd8  1  0.24684000  0.58252000  0.44474000  1
  Cd  Cd9  1  0.24684000  0.08252000  0.05526000  1
  H  H10  1  0.99810000  0.97550000  0.27470000  1
  H  H11  1  0.99810000  0.47550000  0.22530000  1
  H  H12  1  0.98350000  0.12350000  0.44410000  1
  H  H13  1  0.98350000  0.62350000  0.05590000  1
  H  H14  1  0.97900000  0.87560000  0.42790000  1
  H  H15  1  0.97900000  0.37560000  0.07210000  1
  H  H16  1  0.96880000  0.73070000  0.45270000  1
  H  H17  1  0.96880000  0.23070000  0.04730000  1
  H  H18  1  0.96400000  0.78820000  0.28770000  1
  H  H19  1  0.96400000  0.28820000  0.21230000  1
  H  H20  1  0.91800000  0.27110000  0.40200000  1
  H  H21  1  0.91800000  0.77110000  0.09800000  1
  H  H22  1  0.91690000  0.75960000  0.83230000  1
  H  H23  1  0.91690000  0.25960000  0.66770000  1
  H  H24  1  0.90240000  0.19700000  0.31480000  1
  H  H25  1  0.90240000  0.69700000  0.18520000  1
  H  H26  1  0.89970000  0.31020000  0.87590000  1
  H  H27  1  0.89970000  0.81020000  0.62410000  1
  H  H28  1  0.89190000  0.49500000  0.35260000  1
  H  H29  1  0.89190000  0.99500000  0.14740000  1
  H  H30  1  0.87420000  0.91210000  0.34050000  1
  H  H31  1  0.87420000  0.41210000  0.15950000  1
  H  H32  1  0.85630000  0.47020000  0.94430000  1
  H  H33  1  0.85630000  0.97020000  0.55570000  1
  H  H34  1  0.79840000  0.56060000  0.88320000  1
  H  H35  1  0.79840000  0.06060000  0.61680000  1
  H  H36  1  0.77540000  0.53890000  0.30670000  1
  H  H37  1  0.77540000  0.03890000  0.19330000  1
  H  H38  1  0.76730000  0.08460000  0.42090000  1
  H  H39  1  0.76730000  0.58460000  0.07910000  1
  H  H40  1  0.74280000  0.70380000  0.37610000  1
  H  H41  1  0.74280000  0.20380000  0.12390000  1
  H  H42  1  0.71600000  0.84340000  0.49710000  1
  H  H43  1  0.71600000  0.34340000  0.00290000  1
  H  H44  1  0.71200000  0.20130000  0.97280000  1
  H  H45  1  0.71200000  0.70130000  0.52720000  1
  H  H46  1  0.71080000  0.17530000  0.48240000  1
  H  H47  1  0.71080000  0.67530000  0.01760000  1
  H  H48  1  0.69520000  0.36380000  0.36180000  1
  H  H49  1  0.69520000  0.86380000  0.13820000  1
  H  H50  1  0.69320000  0.30850000  0.27100000  1
  H  H51  1  0.69320000  0.80850000  0.22900000  1
  H  H52  1  0.60660000  0.12560000  0.27270000  1
  H  H53  1  0.60660000  0.62560000  0.22730000  1
  H  H54  1  0.59520000  0.66200000  0.42300000  1
  H  H55  1  0.59520000  0.16200000  0.07700000  1
  H  H56  1  0.54210000  0.90590000  0.77290000  1
  H  H57  1  0.54210000  0.40590000  0.72710000  1
  H  H58  1  0.45790000  0.59410000  0.27290000  1
  H  H59  1  0.45790000  0.09410000  0.22710000  1
  H  H60  1  0.40480000  0.83800000  0.92300000  1
  H  H61  1  0.40480000  0.33800000  0.57700000  1
  H  H62  1  0.39340000  0.37440000  0.77270000  1
  H  H63  1  0.39340000  0.87440000  0.72730000  1
  H  H64  1  0.30680000  0.19150000  0.77100000  1
  H  H65  1  0.30680000  0.69150000  0.72900000  1
  H  H66  1  0.30480000  0.13620000  0.86180000  1
  H  H67  1  0.30480000  0.63620000  0.63820000  1
  H  H68  1  0.28920000  0.32470000  0.98240000  1
  H  H69  1  0.28920000  0.82470000  0.51760000  1
  H  H70  1  0.28800000  0.29870000  0.47280000  1
  H  H71  1  0.28800000  0.79870000  0.02720000  1
  H  H72  1  0.28400000  0.65660000  0.99710000  1
  H  H73  1  0.28400000  0.15660000  0.50290000  1
  H  H74  1  0.25720000  0.79620000  0.87610000  1
  H  H75  1  0.25720000  0.29620000  0.62390000  1
  H  H76  1  0.23270000  0.41540000  0.92090000  1
  H  H77  1  0.23270000  0.91540000  0.57910000  1
  H  H78  1  0.22460000  0.96110000  0.80670000  1
  H  H79  1  0.22460000  0.46110000  0.69330000  1
  H  H80  1  0.20160000  0.93940000  0.38320000  1
  H  H81  1  0.20160000  0.43940000  0.11680000  1
  H  H82  1  0.14370000  0.02980000  0.44430000  1
  H  H83  1  0.14370000  0.52980000  0.05570000  1
  H  H84  1  0.12580000  0.58790000  0.84050000  1
  H  H85  1  0.12580000  0.08790000  0.65950000  1
  H  H86  1  0.10810000  0.00500000  0.85260000  1
  H  H87  1  0.10810000  0.50500000  0.64740000  1
  H  H88  1  0.10030000  0.18980000  0.37590000  1
  H  H89  1  0.10030000  0.68980000  0.12410000  1
  H  H90  1  0.09760000  0.30300000  0.81480000  1
  H  H91  1  0.09760000  0.80300000  0.68520000  1
  H  H92  1  0.08310000  0.74040000  0.33230000  1
  H  H93  1  0.08310000  0.24040000  0.16770000  1
  H  H94  1  0.08200000  0.22890000  0.90200000  1
  H  H95  1  0.08200000  0.72890000  0.59800000  1
  H  H96  1  0.03600000  0.71180000  0.78770000  1
  H  H97  1  0.03600000  0.21180000  0.71230000  1
  H  H98  1  0.03120000  0.76930000  0.95270000  1
  H  H99  1  0.03120000  0.26930000  0.54730000  1
  H  H100  1  0.02100000  0.62440000  0.92790000  1
  H  H101  1  0.02100000  0.12440000  0.57210000  1
  H  H102  1  0.01650000  0.37650000  0.94410000  1
  H  H103  1  0.01650000  0.87650000  0.55590000  1
  H  H104  1  0.00190000  0.52450000  0.77470000  1
  H  H105  1  0.00190000  0.02450000  0.72530000  1
  C  C106  1  0.99940000  0.61260000  0.34790000  1
  C  C107  1  0.99940000  0.11260000  0.15210000  1
  C  C108  1  0.99500000  0.00560000  0.30860000  1
  C  C109  1  0.99500000  0.50560000  0.19140000  1
  C  C110  1  0.98630000  0.09330000  0.41020000  1
  C  C111  1  0.98630000  0.59330000  0.08980000  1
  C  C112  1  0.97930000  0.79940000  0.82780000  1
  C  C113  1  0.97930000  0.29940000  0.67220000  1
  C  C114  1  0.94960000  0.72930000  0.30090000  1
  C  C115  1  0.94960000  0.22930000  0.19910000  1
  C  C116  1  0.94310000  0.36710000  0.86910000  1
  C  C117  1  0.94310000  0.86710000  0.63090000  1
  C  C118  1  0.93700000  0.41090000  0.81900000  1
  C  C119  1  0.93700000  0.91090000  0.68100000  1
  C  C120  1  0.92980000  0.91940000  0.88060000  1
  C  C121  1  0.92980000  0.41940000  0.61940000  1
  C  C122  1  0.92420000  0.84020000  0.44720000  1
  C  C123  1  0.92420000  0.34020000  0.05280000  1
  C  C124  1  0.92160000  0.96630000  0.34860000  1
  C  C125  1  0.92160000  0.46630000  0.15140000  1
  C  C126  1  0.92100000  0.00970000  0.40040000  1
  C  C127  1  0.92100000  0.50970000  0.09960000  1
  C  C128  1  0.91870000  0.75370000  0.46290000  1
  C  C129  1  0.91870000  0.25370000  0.03710000  1
  C  C130  1  0.90650000  0.55400000  0.33950000  1
  C  C131  1  0.90650000  0.05400000  0.16050000  1
  C  C132  1  0.86960000  0.27440000  0.37660000  1
  C  C133  1  0.86960000  0.77440000  0.12340000  1
  C  C134  1  0.86200000  0.23170000  0.32370000  1
  C  C135  1  0.86200000  0.73170000  0.17630000  1
  C  C136  1  0.85720000  0.66970000  0.29380000  1
  C  C137  1  0.85720000  0.16970000  0.20620000  1
  C  C138  1  0.85590000  0.37130000  0.77710000  1
  C  C139  1  0.85590000  0.87130000  0.72290000  1
  C  C140  1  0.84950000  0.87490000  0.45970000  1
  C  C141  1  0.84950000  0.37490000  0.04030000  1
  C  C142  1  0.84030000  0.70010000  0.49340000  1
  C  C143  1  0.84030000  0.20010000  0.00660000  1
  C  C144  1  0.83670000  0.57990000  0.31270000  1
  C  C145  1  0.83670000  0.07990000  0.18730000  1
  C  C146  1  0.83560000  0.10780000  0.99030000  1
  C  C147  1  0.83560000  0.60780000  0.50970000  1
  C  C148  1  0.82700000  0.51110000  0.95900000  1
  C  C149  1  0.82700000  0.01110000  0.54100000  1
  C  C150  1  0.81720000  0.01930000  0.48250000  1
  C  C151  1  0.81720000  0.51930000  0.01750000  1
  C  C152  1  0.80680000  0.36050000  0.45040000  1
  C  C153  1  0.80680000  0.86050000  0.04960000  1
  C  C154  1  0.80530000  0.32210000  0.39200000  1
  C  C155  1  0.80530000  0.82210000  0.10800000  1
  C  C156  1  0.79400000  0.24150000  0.28450000  1
  C  C157  1  0.79400000  0.74150000  0.21550000  1
  C  C158  1  0.79230000  0.56550000  0.92260000  1
  C  C159  1  0.79230000  0.06550000  0.57740000  1
  C  C160  1  0.77380000  0.07990000  0.46020000  1
  C  C161  1  0.77380000  0.57990000  0.03980000  1
  C  C162  1  0.76790000  0.82150000  0.48920000  1
  C  C163  1  0.76790000  0.32150000  0.01080000  1
  C  C164  1  0.76520000  0.23590000  0.99360000  1
  C  C165  1  0.76520000  0.73590000  0.50640000  1
  C  C166  1  0.74790000  0.62810000  0.94490000  1
  C  C167  1  0.74790000  0.12810000  0.55510000  1
  C  C168  1  0.73970000  0.13430000  0.49750000  1
  C  C169  1  0.73970000  0.63430000  0.00250000  1
  C  C170  1  0.73830000  0.33220000  0.35190000  1
  C  C171  1  0.73830000  0.83220000  0.14810000  1
  C  C172  1  0.73450000  0.29670000  0.29840000  1
  C  C173  1  0.73450000  0.79670000  0.20160000  1
  C  C174  1  0.71690000  0.68930000  0.90600000  1
  C  C175  1  0.71690000  0.18930000  0.59400000  1
  C  C176  1  0.68920000  0.67260000  0.29700000  1
  C  C177  1  0.68920000  0.17260000  0.20300000  1
  C  C178  1  0.68550000  0.68140000  0.35540000  1
  C  C179  1  0.68550000  0.18140000  0.14460000  1
  C  C180  1  0.60400000  0.63610000  0.26630000  1
  C  C181  1  0.60400000  0.13610000  0.23370000  1
  C  C182  1  0.59710000  0.65710000  0.38340000  1
  C  C183  1  0.59710000  0.15710000  0.11660000  1
  C  C184  1  0.58390000  0.89530000  0.88220000  1
  C  C185  1  0.58390000  0.39530000  0.61780000  1
  C  C186  1  0.51510000  0.61520000  0.29390000  1
  C  C187  1  0.51510000  0.11520000  0.20610000  1
  C  C188  1  0.51030000  0.62520000  0.35240000  1
  C  C189  1  0.51030000  0.12520000  0.14760000  1
  C  C190  1  0.48970000  0.87480000  0.85240000  1
  C  C191  1  0.48970000  0.37480000  0.64760000  1
  C  C192  1  0.48490000  0.88480000  0.79390000  1
  C  C193  1  0.48490000  0.38480000  0.70610000  1
  C  C194  1  0.41610000  0.60470000  0.38220000  1
  C  C195  1  0.41610000  0.10470000  0.11780000  1
  C  C196  1  0.40290000  0.84290000  0.88340000  1
  C  C197  1  0.40290000  0.34290000  0.61660000  1
  C  C198  1  0.39600000  0.86390000  0.76630000  1
  C  C199  1  0.39600000  0.36390000  0.73370000  1
  C  C200  1  0.31450000  0.81860000  0.85540000  1
  C  C201  1  0.31450000  0.31860000  0.64460000  1
  C  C202  1  0.31080000  0.82740000  0.79700000  1
  C  C203  1  0.31080000  0.32740000  0.70300000  1
  C  C204  1  0.28310000  0.81070000  0.40600000  1
  C  C205  1  0.28310000  0.31070000  0.09400000  1
  C  C206  1  0.26550000  0.20330000  0.79840000  1
  C  C207  1  0.26550000  0.70330000  0.70160000  1
  C  C208  1  0.26170000  0.16780000  0.85190000  1
  C  C209  1  0.26170000  0.66780000  0.64810000  1
  C  C210  1  0.26030000  0.36570000  0.99750000  1
  C  C211  1  0.26030000  0.86570000  0.50250000  1
  C  C212  1  0.25210000  0.87190000  0.44490000  1
  C  C213  1  0.25210000  0.37190000  0.05510000  1
  C  C214  1  0.23480000  0.26410000  0.49360000  1
  C  C215  1  0.23480000  0.76410000  0.00640000  1
  C  C216  1  0.23210000  0.67850000  0.98920000  1
  C  C217  1  0.23210000  0.17850000  0.51080000  1
  C  C218  1  0.22620000  0.42010000  0.96020000  1
  C  C219  1  0.22620000  0.92010000  0.53980000  1
  C  C220  1  0.20770000  0.93450000  0.42260000  1
  C  C221  1  0.20770000  0.43450000  0.07740000  1
  C  C222  1  0.20600000  0.25850000  0.78450000  1
  C  C223  1  0.20600000  0.75850000  0.71550000  1
  C  C224  1  0.19470000  0.17790000  0.89200000  1
  C  C225  1  0.19470000  0.67790000  0.60800000  1
  C  C226  1  0.19320000  0.13950000  0.95040000  1
  C  C227  1  0.19320000  0.63950000  0.54960000  1
  C  C228  1  0.18280000  0.48070000  0.98250000  1
  C  C229  1  0.18280000  0.98070000  0.51750000  1
  C  C230  1  0.17300000  0.98890000  0.45900000  1
  C  C231  1  0.17300000  0.48890000  0.04100000  1
  C  C232  1  0.16440000  0.39220000  0.49030000  1
  C  C233  1  0.16440000  0.89220000  0.00970000  1
  C  C234  1  0.16330000  0.92010000  0.81270000  1
  C  C235  1  0.16330000  0.42010000  0.68730000  1
  C  C236  1  0.15970000  0.79990000  0.99340000  1
  C  C237  1  0.15970000  0.29990000  0.50660000  1
  C  C238  1  0.15050000  0.62510000  0.95970000  1
  C  C239  1  0.15050000  0.12510000  0.54030000  1
  C  C240  1  0.14410000  0.12870000  0.27710000  1
  C  C241  1  0.14410000  0.62870000  0.22290000  1
  C  C242  1  0.14280000  0.83030000  0.79380000  1
  C  C243  1  0.14280000  0.33030000  0.70620000  1
  C  C244  1  0.13800000  0.26830000  0.82370000  1
  C  C245  1  0.13800000  0.76830000  0.67630000  1
  C  C246  1  0.13040000  0.22560000  0.87660000  1
  C  C247  1  0.13040000  0.72560000  0.62340000  1
  C  C248  1  0.09350000  0.94600000  0.83950000  1
  C  C249  1  0.09350000  0.44600000  0.66050000  1
  C  C250  1  0.08130000  0.74630000  0.96290000  1
  C  C251  1  0.08130000  0.24630000  0.53710000  1
  C  C252  1  0.07900000  0.49030000  0.90040000  1
  C  C253  1  0.07900000  0.99030000  0.59960000  1
  C  C254  1  0.07840000  0.53370000  0.84860000  1
  C  C255  1  0.07840000  0.03370000  0.65140000  1
  C  C256  1  0.07580000  0.65980000  0.94720000  1
  C  C257  1  0.07580000  0.15980000  0.55280000  1
  C  C258  1  0.07020000  0.58060000  0.38060000  1
  C  C259  1  0.07020000  0.08060000  0.11940000  1
  C  C260  1  0.06300000  0.08910000  0.31900000  1
  C  C261  1  0.06300000  0.58910000  0.18100000  1
  C  C262  1  0.05690000  0.13290000  0.36910000  1
  C  C263  1  0.05690000  0.63290000  0.13090000  1
  C  C264  1  0.05040000  0.77070000  0.80090000  1
  C  C265  1  0.05040000  0.27070000  0.69910000  1
  C  C266  1  0.02070000  0.70060000  0.32780000  1
  C  C267  1  0.02070000  0.20060000  0.17220000  1
  C  C268  1  0.01370000  0.40670000  0.91020000  1
  C  C269  1  0.01370000  0.90670000  0.58980000  1
  C  C270  1  0.00500000  0.49440000  0.80860000  1
  C  C271  1  0.00500000  0.99440000  0.69140000  1
  C  C272  1  0.00060000  0.88740000  0.84790000  1
  C  C273  1  0.00060000  0.38740000  0.65210000  1
  N  N274  1  0.85360000  0.96480000  0.44420000  1
  N  N275  1  0.85360000  0.46480000  0.05580000  1
  N  N276  1  0.78230000  0.69840000  0.26880000  1
  N  N277  1  0.78230000  0.19840000  0.23120000  1
  N  N278  1  0.21770000  0.80160000  0.76880000  1
  N  N279  1  0.21770000  0.30160000  0.73120000  1
  N  N280  1  0.14640000  0.53520000  0.94420000  1
  N  N281  1  0.14640000  0.03520000  0.55580000  1
  O  O282  1  0.95490000  0.99070000  0.90720000  1
  O  O283  1  0.95490000  0.49070000  0.59280000  1
  O  O284  1  0.89400000  0.57310000  0.48350000  1
  O  O285  1  0.89400000  0.07310000  0.01650000  1
  O  O286  1  0.87780000  0.36860000  0.48330000  1
  O  O287  1  0.87780000  0.86860000  0.01670000  1
  O  O288  1  0.84000000  0.86770000  0.88100000  1
  O  O289  1  0.84000000  0.36770000  0.61900000  1
  O  O290  1  0.83340000  0.92390000  0.75850000  1
  O  O291  1  0.83340000  0.42390000  0.74150000  1
  O  O292  1  0.81320000  0.29010000  0.77700000  1
  O  O293  1  0.81320000  0.79010000  0.72300000  1
  O  O294  1  0.77550000  0.06660000  0.95200000  1
  O  O295  1  0.77550000  0.56660000  0.54800000  1
  O  O296  1  0.73140000  0.37850000  0.46490000  1
  O  O297  1  0.73140000  0.87850000  0.03510000  1
  O  O298  1  0.73130000  0.68190000  0.85250000  1
  O  O299  1  0.73130000  0.18190000  0.64750000  1
  O  O300  1  0.67530000  0.74280000  0.92610000  1
  O  O301  1  0.67530000  0.24280000  0.57390000  1
  O  O302  1  0.66250000  0.90880000  0.85230000  1
  O  O303  1  0.66250000  0.40880000  0.64770000  1
  O  O304  1  0.58710000  0.89990000  0.93560000  1
  O  O305  1  0.58710000  0.39990000  0.56440000  1
  O  O306  1  0.41290000  0.60010000  0.43560000  1
  O  O307  1  0.41290000  0.10010000  0.06440000  1
  O  O308  1  0.33750000  0.59120000  0.35230000  1
  O  O309  1  0.33750000  0.09120000  0.14770000  1
  O  O310  1  0.32470000  0.75720000  0.42610000  1
  O  O311  1  0.32470000  0.25720000  0.07390000  1
  O  O312  1  0.26870000  0.81810000  0.35250000  1
  O  O313  1  0.26870000  0.31810000  0.14750000  1
  O  O314  1  0.26860000  0.12150000  0.96490000  1
  O  O315  1  0.26860000  0.62150000  0.53510000  1
  O  O316  1  0.22450000  0.43340000  0.45200000  1
  O  O317  1  0.22450000  0.93340000  0.04800000  1
  O  O318  1  0.18680000  0.20990000  0.27700000  1
  O  O319  1  0.18680000  0.70990000  0.22300000  1
  O  O320  1  0.16660000  0.57610000  0.25850000  1
  O  O321  1  0.16660000  0.07610000  0.24150000  1
  O  O322  1  0.16000000  0.63230000  0.38100000  1
  O  O323  1  0.16000000  0.13230000  0.11900000  1
  O  O324  1  0.12220000  0.13140000  0.98330000  1
  O  O325  1  0.12220000  0.63140000  0.51670000  1
  O  O326  1  0.10600000  0.92690000  0.98350000  1
  O  O327  1  0.10600000  0.42690000  0.51650000  1
  O  O328  1  0.04510000  0.50930000  0.40720000  1
  O  O329  1  0.04510000  0.00930000  0.09280000  1
