# generated using pymatgen
data_Sm2Cu2H5(C5O4)5
_symmetry_space_group_name_H-M   'P 1'
_cell_length_a   10.92300000
_cell_length_b   19.75800000
_cell_length_c   22.77100000
_cell_angle_alpha   90.00000000
_cell_angle_beta   90.00000000
_cell_angle_gamma   99.64000000
_symmetry_Int_Tables_number   1
_chemical_formula_structural   Sm2Cu2H5(C5O4)5
_chemical_formula_sum   'Sm8 Cu8 H20 C100 O80'
_cell_volume   4844.96670671
_cell_formula_units_Z   4
loop_
 _symmetry_equiv_pos_site_id
 _symmetry_equiv_pos_as_xyz
  1  'x, y, z'
loop_
 _atom_site_type_symbol
 _atom_site_label
 _atom_site_symmetry_multiplicity
 _atom_site_fract_x
 _atom_site_fract_y
 _atom_site_fract_z
 _atom_site_occupancy
  Sm  Sm0  1  0.04079000  0.90009000  0.35312000  1
  Sm  Sm1  1  0.14666000  0.85266000  0.85356000  1
  Sm  Sm2  1  0.35334000  0.64734000  0.35356000  1
  Sm  Sm3  1  0.45921000  0.59991000  0.85312000  1
  Sm  Sm4  1  0.54079000  0.40009000  0.14687000  1
  Sm  Sm5  1  0.64666000  0.35266000  0.64644000  1
  Sm  Sm6  1  0.85334000  0.14734000  0.14644000  1
  Sm  Sm7  1  0.95921000  0.09991000  0.64688000  1
  Cu  Cu8  1  0.09079000  0.89974000  0.17604000  1
  Cu  Cu9  1  0.19515000  0.84662000  0.67721000  1
  Cu  Cu10  1  0.30485000  0.65338000  0.17721000  1
  Cu  Cu11  1  0.40921000  0.60026000  0.67604000  1
  Cu  Cu12  1  0.59079000  0.39974000  0.32396000  1
  Cu  Cu13  1  0.69515000  0.34662000  0.82279000  1
  Cu  Cu14  1  0.80485000  0.15338000  0.32279000  1
  Cu  Cu15  1  0.90921000  0.10026000  0.82396000  1
  H  H16  1  0.01990000  0.49380000  0.30550000  1
  H  H17  1  0.08180000  0.45440000  0.08170000  1
  H  H18  1  0.11160000  0.30880000  0.19920000  1
  H  H19  1  0.12050000  0.44220000  0.80450000  1
  H  H20  1  0.22770000  0.25660000  0.70380000  1
  H  H21  1  0.27230000  0.24340000  0.20380000  1
  H  H22  1  0.37950000  0.05780000  0.30450000  1
  H  H23  1  0.38840000  0.19120000  0.69920000  1
  H  H24  1  0.41820000  0.04560000  0.58170000  1
  H  H25  1  0.48010000  0.00620000  0.80550000  1
  H  H26  1  0.51990000  0.99380000  0.19450000  1
  H  H27  1  0.58180000  0.95440000  0.41830000  1
  H  H28  1  0.61160000  0.80880000  0.30080000  1
  H  H29  1  0.62050000  0.94220000  0.69550000  1
  H  H30  1  0.72770000  0.75660000  0.79620000  1
  H  H31  1  0.77230000  0.74340000  0.29620000  1
  H  H32  1  0.87950000  0.55780000  0.19550000  1
  H  H33  1  0.88840000  0.69120000  0.80080000  1
  H  H34  1  0.91820000  0.54560000  0.91830000  1
  H  H35  1  0.98010000  0.50620000  0.69450000  1
  C  C36  1  0.00660000  0.66360000  0.74090000  1
  C  C37  1  0.03450000  0.60770000  0.70900000  1
  C  C38  1  0.03620000  0.21250000  0.77060000  1
  C  C39  1  0.03900000  0.45670000  0.28440000  1
  C  C40  1  0.04600000  0.66520000  0.17310000  1
  C  C41  1  0.04920000  0.47280000  0.04880000  1
  C  C42  1  0.07120000  0.34000000  0.79220000  1
  C  C43  1  0.07510000  0.73490000  0.73090000  1
  C  C44  1  0.07870000  0.52660000  0.95420000  1
  C  C45  1  0.09430000  0.34580000  0.22110000  1
  C  C46  1  0.09940000  0.13740000  0.18730000  1
  C  C47  1  0.10380000  0.28360000  0.76200000  1
  C  C48  1  0.12680000  0.49860000  0.00420000  1
  C  C49  1  0.14120000  0.46610000  0.24660000  1
  C  C50  1  0.14290000  0.40470000  0.78510000  1
  C  C51  1  0.14770000  0.61110000  0.67030000  1
  C  C52  1  0.15840000  0.55710000  0.90540000  1
  C  C53  1  0.17080000  0.41000000  0.21500000  1
  C  C54  1  0.18420000  0.01400000  0.23970000  1
  C  C55  1  0.20730000  0.29340000  0.72500000  1
  C  C56  1  0.20840000  0.08510000  0.68230000  1
  C  C57  1  0.21100000  0.53690000  0.23890000  1
  C  C58  1  0.22010000  0.14200000  0.21950000  1
  C  C59  1  0.23730000  0.00740000  0.51010000  1
  C  C60  1  0.24730000  0.41390000  0.74940000  1
  C  C61  1  0.25270000  0.08610000  0.24940000  1
  C  C62  1  0.26270000  0.49260000  0.01010000  1
  C  C63  1  0.27990000  0.35800000  0.71950000  1
  C  C64  1  0.28900000  0.96310000  0.73890000  1
  C  C65  1  0.29160000  0.41490000  0.18230000  1
  C  C66  1  0.29270000  0.20660000  0.22500000  1
  C  C67  1  0.31580000  0.48600000  0.73970000  1
  C  C68  1  0.32920000  0.09000000  0.71500000  1
  C  C69  1  0.34160000  0.94290000  0.40540000  1
  C  C70  1  0.35230000  0.88890000  0.17030000  1
  C  C71  1  0.35710000  0.09530000  0.28510000  1
  C  C72  1  0.35880000  0.03390000  0.74660000  1
  C  C73  1  0.37320000  0.00140000  0.50420000  1
  C  C74  1  0.39620000  0.21640000  0.26200000  1
  C  C75  1  0.40060000  0.36260000  0.68730000  1
  C  C76  1  0.40570000  0.15420000  0.72110000  1
  C  C77  1  0.42130000  0.97340000  0.45420000  1
  C  C78  1  0.42490000  0.76510000  0.23090000  1
  C  C79  1  0.42880000  0.16000000  0.29220000  1
  C  C80  1  0.45080000  0.02720000  0.54880000  1
  C  C81  1  0.45400000  0.83480000  0.67310000  1
  C  C82  1  0.46100000  0.04330000  0.78440000  1
  C  C83  1  0.46380000  0.28750000  0.27060000  1
  C  C84  1  0.46550000  0.89230000  0.20900000  1
  C  C85  1  0.49340000  0.83640000  0.24090000  1
  C  C86  1  0.50660000  0.16360000  0.75910000  1
  C  C87  1  0.53450000  0.10770000  0.79100000  1
  C  C88  1  0.53620000  0.71250000  0.72940000  1
  C  C89  1  0.53900000  0.95670000  0.21560000  1
  C  C90  1  0.54600000  0.16520000  0.32690000  1
  C  C91  1  0.54920000  0.97280000  0.45120000  1
  C  C92  1  0.57120000  0.84000000  0.70780000  1
  C  C93  1  0.57510000  0.23490000  0.76910000  1
  C  C94  1  0.57870000  0.02660000  0.54580000  1
  C  C95  1  0.59430000  0.84580000  0.27890000  1
  C  C96  1  0.59940000  0.63740000  0.31270000  1
  C  C97  1  0.60380000  0.78360000  0.73800000  1
  C  C98  1  0.62680000  0.99860000  0.49580000  1
  C  C99  1  0.64120000  0.96610000  0.25340000  1
  C  C100  1  0.64290000  0.90470000  0.71490000  1
  C  C101  1  0.64770000  0.11110000  0.82970000  1
  C  C102  1  0.65840000  0.05710000  0.59460000  1
  C  C103  1  0.67080000  0.91000000  0.28500000  1
  C  C104  1  0.68420000  0.51400000  0.26030000  1
  C  C105  1  0.70730000  0.79340000  0.77500000  1
  C  C106  1  0.70840000  0.58510000  0.81770000  1
  C  C107  1  0.71100000  0.03690000  0.26110000  1
  C  C108  1  0.72010000  0.64200000  0.28050000  1
  C  C109  1  0.73730000  0.50740000  0.98990000  1
  C  C110  1  0.74730000  0.91390000  0.75060000  1
  C  C111  1  0.75270000  0.58610000  0.25060000  1
  C  C112  1  0.76270000  0.99260000  0.48990000  1
  C  C113  1  0.77990000  0.85800000  0.78050000  1
  C  C114  1  0.78900000  0.46310000  0.76110000  1
  C  C115  1  0.79160000  0.91490000  0.31770000  1
  C  C116  1  0.79270000  0.70660000  0.27500000  1
  C  C117  1  0.81580000  0.98600000  0.76030000  1
  C  C118  1  0.82920000  0.59000000  0.78500000  1
  C  C119  1  0.84160000  0.44290000  0.09460000  1
  C  C120  1  0.85230000  0.38890000  0.32970000  1
  C  C121  1  0.85710000  0.59530000  0.21490000  1
  C  C122  1  0.85880000  0.53390000  0.75340000  1
  C  C123  1  0.87320000  0.50140000  0.99580000  1
  C  C124  1  0.89620000  0.71640000  0.23800000  1
  C  C125  1  0.90060000  0.86260000  0.81270000  1
  C  C126  1  0.90570000  0.65420000  0.77890000  1
  C  C127  1  0.92130000  0.47340000  0.04580000  1
  C  C128  1  0.92490000  0.26510000  0.26910000  1
  C  C129  1  0.92880000  0.66000000  0.20780000  1
  C  C130  1  0.95080000  0.52720000  0.95120000  1
  C  C131  1  0.95400000  0.33480000  0.82690000  1
  C  C132  1  0.96100000  0.54330000  0.71560000  1
  C  C133  1  0.96380000  0.78750000  0.22940000  1
  C  C134  1  0.96550000  0.39230000  0.29100000  1
  C  C135  1  0.99340000  0.33640000  0.25910000  1
  O  O136  1  0.00550000  0.09870000  0.20910000  1
  O  O137  1  0.00670000  0.80370000  0.17840000  1
  O  O138  1  0.02900000  0.17120000  0.72850000  1
  O  O139  1  0.03850000  0.65190000  0.11950000  1
  O  O140  1  0.08760000  0.77610000  0.77340000  1
  O  O141  1  0.08880000  0.17340000  0.14310000  1
  O  O142  1  0.10750000  0.57910000  0.86230000  1
  O  O143  1  0.11210000  0.75050000  0.67970000  1
  O  O144  1  0.11490000  0.04740000  0.70450000  1
  O  O145  1  0.13470000  0.59110000  0.61910000  1
  O  O146  1  0.14510000  0.68030000  0.20170000  1
  O  O147  1  0.14910000  0.97770000  0.28320000  1
  O  O148  1  0.16850000  0.96200000  0.53950000  1
  O  O149  1  0.17250000  0.99500000  0.18720000  1
  O  O150  1  0.19900000  0.12040000  0.63740000  1
  O  O151  1  0.20140000  0.05950000  0.48780000  1
  O  O152  1  0.22460000  0.93830000  0.40970000  1
  O  O153  1  0.22790000  0.55780000  0.18650000  1
  O  O154  1  0.24090000  0.57310000  0.28340000  1
  O  O155  1  0.24960000  0.86830000  0.19470000  1
  O  O156  1  0.25040000  0.63170000  0.69470000  1
  O  O157  1  0.25910000  0.92690000  0.78340000  1
  O  O158  1  0.27210000  0.94220000  0.68650000  1
  O  O159  1  0.27540000  0.56170000  0.90970000  1
  O  O160  1  0.29860000  0.44050000  0.98780000  1
  O  O161  1  0.30100000  0.37960000  0.13740000  1
  O  O162  1  0.32750000  0.50500000  0.68720000  1
  O  O163  1  0.33150000  0.53800000  0.03950000  1
  O  O164  1  0.35090000  0.52230000  0.78320000  1
  O  O165  1  0.35490000  0.81970000  0.70170000  1
  O  O166  1  0.36530000  0.90890000  0.11910000  1
  O  O167  1  0.38510000  0.45260000  0.20450000  1
  O  O168  1  0.38790000  0.74950000  0.17970000  1
  O  O169  1  0.39250000  0.92090000  0.36230000  1
  O  O170  1  0.41120000  0.32660000  0.64310000  1
  O  O171  1  0.41240000  0.72390000  0.27340000  1
  O  O172  1  0.46150000  0.84810000  0.61950000  1
  O  O173  1  0.47100000  0.32880000  0.22850000  1
  O  O174  1  0.49330000  0.69630000  0.67840000  1
  O  O175  1  0.49450000  0.40130000  0.70910000  1
  O  O176  1  0.50550000  0.59870000  0.29090000  1
  O  O177  1  0.50670000  0.30370000  0.32160000  1
  O  O178  1  0.52900000  0.67120000  0.77150000  1
  O  O179  1  0.53850000  0.15190000  0.38050000  1
  O  O180  1  0.58760000  0.27610000  0.72660000  1
  O  O181  1  0.58880000  0.67340000  0.35690000  1
  O  O182  1  0.60750000  0.07910000  0.63770000  1
  O  O183  1  0.61210000  0.25050000  0.82030000  1
  O  O184  1  0.61490000  0.54740000  0.79550000  1
  O  O185  1  0.63470000  0.09110000  0.88090000  1
  O  O186  1  0.64510000  0.18030000  0.29830000  1
  O  O187  1  0.64910000  0.47770000  0.21680000  1
  O  O188  1  0.66850000  0.46200000  0.96050000  1
  O  O189  1  0.67250000  0.49500000  0.31280000  1
  O  O190  1  0.69900000  0.62040000  0.86260000  1
  O  O191  1  0.70140000  0.55950000  0.01220000  1
  O  O192  1  0.72460000  0.43830000  0.09030000  1
  O  O193  1  0.72790000  0.05780000  0.31350000  1
  O  O194  1  0.74090000  0.07310000  0.21660000  1
  O  O195  1  0.74960000  0.36830000  0.30530000  1
  O  O196  1  0.75040000  0.13170000  0.80530000  1
  O  O197  1  0.75910000  0.42690000  0.71660000  1
  O  O198  1  0.77210000  0.44220000  0.81350000  1
  O  O199  1  0.77540000  0.06170000  0.59030000  1
  O  O200  1  0.79860000  0.94050000  0.51220000  1
  O  O201  1  0.80100000  0.87960000  0.36260000  1
  O  O202  1  0.82750000  0.00500000  0.81280000  1
  O  O203  1  0.83150000  0.03800000  0.46050000  1
  O  O204  1  0.85090000  0.02230000  0.71680000  1
  O  O205  1  0.85490000  0.31970000  0.79830000  1
  O  O206  1  0.86530000  0.40890000  0.38090000  1
  O  O207  1  0.88510000  0.95260000  0.29550000  1
  O  O208  1  0.88790000  0.24950000  0.32030000  1
  O  O209  1  0.89250000  0.42090000  0.13770000  1
  O  O210  1  0.91120000  0.82660000  0.85690000  1
  O  O211  1  0.91240000  0.22390000  0.22660000  1
  O  O212  1  0.96150000  0.34810000  0.88050000  1
  O  O213  1  0.97100000  0.82880000  0.27150000  1
  O  O214  1  0.99330000  0.19630000  0.82160000  1
  O  O215  1  0.99450000  0.90130000  0.79090000  1
