# generated using pymatgen
data_CaCdH8(C8O5)2
_symmetry_space_group_name_H-M   'P 1'
_cell_length_a   14.20860000
_cell_length_b   15.58830000
_cell_length_c   15.58830470
_cell_angle_alpha   78.01214008
_cell_angle_beta   62.88706628
_cell_angle_gamma   62.88710000
_symmetry_Int_Tables_number   1
_chemical_formula_structural   CaCdH8(C8O5)2
_chemical_formula_sum   'Ca4 Cd4 H32 C64 O40'
_cell_volume   2735.49780808
_cell_formula_units_Z   4
loop_
 _symmetry_equiv_pos_site_id
 _symmetry_equiv_pos_as_xyz
  1  'x, y, z'
loop_
 _atom_site_type_symbol
 _atom_site_label
 _atom_site_symmetry_multiplicity
 _atom_site_fract_x
 _atom_site_fract_y
 _atom_site_fract_z
 _atom_site_occupancy
  Ca  Ca0  1  0.95254000  0.59492000  1.00000000  1
  Ca  Ca1  1  0.54746000  0.40508000  1.00000000  1
  Ca  Ca2  1  0.04746000  0.00000000  0.40508000  1
  Ca  Ca3  1  0.45254000  0.00000000  0.59492000  1
  Cd  Cd4  1  0.26776000  0.96447000  0.50000000  1
  Cd  Cd5  1  0.76777000  0.50000000  0.96446000  1
  Cd  Cd6  1  0.23223000  0.50000000  0.03554000  1
  Cd  Cd7  1  0.73224000  0.03553000  0.50000000  1
  H  H8  1  0.60160000  0.27320000  0.34560000  1
  H  H9  1  0.32880000  0.22520000  0.60060000  1
  H  H10  1  0.09810000  0.41380000  0.81760000  1
  H  H11  1  0.48810000  0.18240000  0.41380000  1
  H  H12  1  0.55280000  0.72680000  0.34560000  1
  H  H13  1  0.22040000  0.72680000  0.65440000  1
  H  H14  1  0.07060000  0.60060000  0.77480000  1
  H  H15  1  0.05280000  0.34560000  0.72680000  1
  H  H16  1  0.49170000  0.71470000  0.22970000  1
  H  H17  1  0.99170000  0.22970000  0.71470000  1
  H  H18  1  0.44600000  0.39940000  0.22520000  1
  H  H19  1  0.08430000  0.81760000  0.58620000  1
  H  H20  1  0.27860000  0.22970000  0.28530000  1
  H  H21  1  0.15460000  0.77480000  0.39940000  1
  H  H22  1  0.32950000  0.58620000  0.18240000  1
  H  H23  1  0.79360000  0.77030000  0.71470000  1
  H  H24  1  0.72040000  0.65440000  0.72680000  1
  H  H25  1  0.65460000  0.39940000  0.77480000  1
  H  H26  1  0.82950000  0.18240000  0.58620000  1
  H  H27  1  0.58430000  0.58620000  0.81760000  1
  H  H28  1  0.12520000  0.65440000  0.27320000  1
  H  H29  1  0.10160000  0.34560000  0.27320000  1
  H  H30  1  0.94600000  0.22520000  0.39940000  1
  H  H31  1  0.62520000  0.27320000  0.65440000  1
  H  H32  1  0.93610000  0.77030000  0.28530000  1
  H  H33  1  0.43610000  0.28530000  0.77030000  1
  H  H34  1  0.57060000  0.77480000  0.60060000  1
  H  H35  1  0.98810000  0.41380000  0.18240000  1
  H  H36  1  0.29360000  0.71470000  0.77030000  1
  H  H37  1  0.82880000  0.60060000  0.22520000  1
  H  H38  1  0.59810000  0.81760000  0.41380000  1
  H  H39  1  0.77860000  0.28530000  0.22970000  1
  C  C40  1  0.35940000  0.82570000  0.61910000  1
  C  C41  1  0.31200000  0.25800000  0.65280000  1
  C  C42  1  0.85340000  0.41339000  0.10961000  1
  C  C43  1  0.17392000  0.37078000  0.78278000  1
  C  C44  1  0.19890000  0.32060000  0.70600000  1
  C  C45  1  0.45530000  0.21722000  0.37078000  1
  C  C46  1  0.48050000  0.29400000  0.32060000  1
  C  C47  1  0.03520000  0.65280000  0.74200000  1
  C  C48  1  0.09510000  0.70600000  0.67940000  1
  C  C49  1  0.35340000  0.10961000  0.41339000  1
  C  C50  1  0.38070000  0.19203000  0.35677000  1
  C  C51  1  0.31490000  0.82570000  0.38090000  1
  C  C52  1  0.43000000  0.34720000  0.25800000  1
  C  C53  1  0.85940000  0.61910000  0.82570000  1
  C  C54  1  0.92120000  0.67745000  0.75595000  1
  C  C55  1  0.04330000  0.78278000  0.62922000  1
  C  C56  1  0.42490000  0.70620000  0.24560000  1
  C  C57  1  0.53699000  0.58661000  0.10961000  1
  C  C58  1  0.32285000  0.75595000  0.32255000  1
  C  C59  1  0.81490000  0.38090000  0.82570000  1
  C  C60  1  0.92490000  0.24560000  0.70620000  1
  C  C61  1  0.03699000  0.10961000  0.58661000  1
  C  C62  1  0.32950000  0.24560000  0.29380000  1
  C  C63  1  0.42727000  0.64323000  0.19203000  1
  C  C64  1  0.35460000  0.32255000  0.24405000  1
  C  C65  1  0.82285000  0.32255000  0.75595000  1
  C  C66  1  0.86890000  0.75440000  0.70620000  1
  C  C67  1  0.92950000  0.80797000  0.64323000  1
  C  C68  1  0.92727000  0.19203000  0.64323000  1
  C  C69  1  0.22280000  0.74200000  0.34720000  1
  C  C70  1  0.32748000  0.62922000  0.21722000  1
  C  C71  1  0.22550000  0.67940000  0.29400000  1
  C  C72  1  0.30420000  0.38090000  0.17430000  1
  C  C73  1  0.72280000  0.34720000  0.74200000  1
  C  C74  1  0.87640000  0.89039000  0.58661000  1
  C  C75  1  0.82748000  0.21722000  0.62922000  1
  C  C76  1  0.72550000  0.29400000  0.67940000  1
  C  C77  1  0.54330000  0.62922000  0.78278000  1
  C  C78  1  0.59510000  0.67940000  0.70600000  1
  C  C79  1  0.93000000  0.25800000  0.34720000  1
  C  C80  1  0.98050000  0.32060000  0.29400000  1
  C  C81  1  0.37640000  0.58661000  0.89039000  1
  C  C82  1  0.42950000  0.64323000  0.80797000  1
  C  C83  1  0.02150000  0.61910000  0.17430000  1
  C  C84  1  0.53520000  0.74200000  0.65280000  1
  C  C85  1  0.80420000  0.17430000  0.38090000  1
  C  C86  1  0.85460000  0.24405000  0.32255000  1
  C  C87  1  0.95530000  0.37078000  0.21722000  1
  C  C88  1  0.87670000  0.75440000  0.29380000  1
  C  C89  1  0.73321000  0.89039000  0.41339000  1
  C  C90  1  0.90135000  0.67745000  0.24405000  1
  C  C91  1  0.52150000  0.17430000  0.61910000  1
  C  C92  1  0.37670000  0.29380000  0.75440000  1
  C  C93  1  0.23321000  0.41339000  0.89039000  1
  C  C94  1  0.36890000  0.70620000  0.75440000  1
  C  C95  1  0.76253000  0.80797000  0.35677000  1
  C  C96  1  0.42120000  0.75595000  0.67745000  1
  C  C97  1  0.40135000  0.24405000  0.67745000  1
  C  C98  1  0.82950000  0.29380000  0.24560000  1
  C  C99  1  0.88070000  0.35677000  0.19203000  1
  C  C100  1  0.26253000  0.35677000  0.80797000  1
  C  C101  1  0.81200000  0.65280000  0.25800000  1
  C  C102  1  0.67392000  0.78278000  0.37078000  1
  C  C103  1  0.69890000  0.70600000  0.32060000  1
  O  O104  1  0.39629000  0.88875000  0.57107000  1
  O  O105  1  0.88158000  0.48160000  0.07584000  1
  O  O106  1  0.61570000  0.67990000  0.32930000  1
  O  O107  1  0.27284000  0.82369000  0.61803000  1
  O  O108  1  0.55500000  0.32010000  0.32930000  1
  O  O109  1  0.80454000  0.38686000  0.07586000  1
  O  O110  1  0.20440000  0.67990000  0.67070000  1
  O  O111  1  0.38158000  0.07584000  0.48160000  1
  O  O112  1  0.11570000  0.32930000  0.67990000  1
  O  O113  1  0.40347000  0.82369000  0.38197000  1
  O  O114  1  0.89629000  0.57107000  0.88875000  1
  O  O115  1  0.11960000  0.07586000  0.61314000  1
  O  O116  1  0.90347000  0.38197000  0.82369000  1
  O  O117  1  0.61960000  0.61314000  0.07586000  1
  O  O118  1  0.30454000  0.07586000  0.38686000  1
  O  O119  1  0.21496000  0.88875000  0.42893000  1
  O  O120  1  0.54258000  0.51840000  0.07584000  1
  O  O121  1  0.71496000  0.42893000  0.88875000  1
  O  O122  1  0.77284000  0.61803000  0.82369000  1
  O  O123  1  0.04258000  0.07584000  0.51840000  1
  O  O124  1  0.35611000  0.42893000  0.11125000  1
  O  O125  1  0.93902000  0.92416000  0.51840000  1
  O  O126  1  0.12490000  0.67070000  0.32010000  1
  O  O127  1  0.21456000  0.38197000  0.17631000  1
  O  O128  1  0.70440000  0.67070000  0.67990000  1
  O  O129  1  0.76726000  0.92414000  0.61314000  1
  O  O130  1  0.05500000  0.32930000  0.32010000  1
  O  O131  1  0.43902000  0.51840000  0.92416000  1
  O  O132  1  0.62490000  0.32010000  0.67070000  1
  O  O133  1  0.10913000  0.61803000  0.17631000  1
  O  O134  1  0.85611000  0.11125000  0.42893000  1
  O  O135  1  0.30860000  0.38686000  0.92414000  1
  O  O136  1  0.60913000  0.17631000  0.61803000  1
  O  O137  1  0.80860000  0.92414000  0.38686000  1
  O  O138  1  0.26726000  0.61314000  0.92414000  1
  O  O139  1  0.03264000  0.57107000  0.11125000  1
  O  O140  1  0.63682000  0.92416000  0.48160000  1
  O  O141  1  0.53264000  0.11125000  0.57107000  1
  O  O142  1  0.71456000  0.17631000  0.38197000  1
  O  O143  1  0.13682000  0.48160000  0.92416000  1
