# generated using pymatgen
data_CuH11C18(NO2)2
_symmetry_space_group_name_H-M   'P 1'
_cell_length_a   13.53300000
_cell_length_b   13.61500000
_cell_length_c   15.65300000
_cell_angle_alpha   103.91800000
_cell_angle_beta   90.00000000
_cell_angle_gamma   90.00000000
_symmetry_Int_Tables_number   1
_chemical_formula_structural   CuH11C18(NO2)2
_chemical_formula_sum   'Cu4 H44 C72 N8 O16'
_cell_volume   2799.41914618
_cell_formula_units_Z   4
loop_
 _symmetry_equiv_pos_site_id
 _symmetry_equiv_pos_as_xyz
  1  'x, y, z'
loop_
 _atom_site_type_symbol
 _atom_site_label
 _atom_site_symmetry_multiplicity
 _atom_site_fract_x
 _atom_site_fract_y
 _atom_site_fract_z
 _atom_site_occupancy
  Cu  Cu0  1  0.55758000  0.97554000  0.42737000  1
  Cu  Cu1  1  0.94242000  0.47554000  0.42737000  1
  Cu  Cu2  1  0.05758000  0.52446000  0.57263000  1
  Cu  Cu3  1  0.44242000  0.02446000  0.57263000  1
  H  H4  1  0.03360000  0.66090000  0.02060000  1
  H  H5  1  0.46640000  0.16090000  0.02060000  1
  H  H6  1  0.67450000  0.36420000  0.02080000  1
  H  H7  1  0.82550000  0.86420000  0.02080000  1
  H  H8  1  0.50760000  0.90900000  0.10400000  1
  H  H9  1  0.99240000  0.40900000  0.10400000  1
  H  H10  1  0.15020000  0.16870000  0.12890000  1
  H  H11  1  0.34980000  0.66870000  0.12890000  1
  H  H12  1  0.70430000  0.37850000  0.15720000  1
  H  H13  1  0.79570000  0.87850000  0.15720000  1
  H  H14  1  0.06030000  0.69670000  0.16870000  1
  H  H15  1  0.43970000  0.19670000  0.16870000  1
  H  H16  1  0.02250000  0.44710000  0.25230000  1
  H  H17  1  0.47750000  0.94710000  0.25230000  1
  H  H18  1  0.16450000  0.30650000  0.26330000  1
  H  H19  1  0.33550000  0.80650000  0.26330000  1
  H  H20  1  0.11120000  0.61220000  0.27160000  1
  H  H21  1  0.38880000  0.11220000  0.27160000  1
  H  H22  1  0.74280000  0.42060000  0.30480000  1
  H  H23  1  0.75720000  0.92060000  0.30480000  1
  H  H24  1  0.24190000  0.76030000  0.49830000  1
  H  H25  1  0.25810000  0.26030000  0.49830000  1
  H  H26  1  0.74190000  0.73970000  0.50170000  1
  H  H27  1  0.75810000  0.23970000  0.50170000  1
  H  H28  1  0.24280000  0.07940000  0.69520000  1
  H  H29  1  0.25720000  0.57940000  0.69520000  1
  H  H30  1  0.61120000  0.88780000  0.72840000  1
  H  H31  1  0.88880000  0.38780000  0.72840000  1
  H  H32  1  0.66450000  0.19350000  0.73670000  1
  H  H33  1  0.83550000  0.69350000  0.73670000  1
  H  H34  1  0.52250000  0.05290000  0.74770000  1
  H  H35  1  0.97750000  0.55290000  0.74770000  1
  H  H36  1  0.56030000  0.80330000  0.83130000  1
  H  H37  1  0.93970000  0.30330000  0.83130000  1
  H  H38  1  0.20430000  0.12150000  0.84280000  1
  H  H39  1  0.29570000  0.62150000  0.84280000  1
  H  H40  1  0.65020000  0.33130000  0.87110000  1
  H  H41  1  0.84980000  0.83130000  0.87110000  1
  H  H42  1  0.00760000  0.59100000  0.89600000  1
  H  H43  1  0.49240000  0.09100000  0.89600000  1
  H  H44  1  0.17450000  0.13580000  0.97920000  1
  H  H45  1  0.32550000  0.63580000  0.97920000  1
  H  H46  1  0.53360000  0.83910000  0.97940000  1
  H  H47  1  0.96640000  0.33910000  0.97940000  1
  C  C48  1  0.22990000  0.14690000  0.01760000  1
  C  C49  1  0.27010000  0.64690000  0.01760000  1
  C  C50  1  0.67490000  0.85870000  0.01770000  1
  C  C51  1  0.82510000  0.35870000  0.01770000  1
  C  C52  1  0.09950000  0.66200000  0.04170000  1
  C  C53  1  0.40050000  0.16200000  0.04170000  1
  C  C54  1  0.21530000  0.16800000  0.10600000  1
  C  C55  1  0.28470000  0.66800000  0.10600000  1
  C  C56  1  0.65640000  0.88610000  0.11380000  1
  C  C57  1  0.84360000  0.38610000  0.11380000  1
  C  C58  1  0.11480000  0.68400000  0.12940000  1
  C  C59  1  0.38520000  0.18400000  0.12940000  1
  C  C60  1  0.56030000  0.90940000  0.14420000  1
  C  C61  1  0.93970000  0.40940000  0.14420000  1
  C  C62  1  0.72890000  0.89190000  0.17510000  1
  C  C63  1  0.77110000  0.39190000  0.17510000  1
  C  C64  1  0.54350000  0.93280000  0.23270000  1
  C  C65  1  0.95650000  0.43280000  0.23270000  1
  C  C66  1  0.21990000  0.70830000  0.25560000  1
  C  C67  1  0.28010000  0.20830000  0.25560000  1
  C  C68  1  0.70510000  0.91720000  0.26360000  1
  C  C69  1  0.79490000  0.41720000  0.26360000  1
  C  C70  1  0.20750000  0.27460000  0.29630000  1
  C  C71  1  0.29250000  0.77460000  0.29630000  1
  C  C72  1  0.15890000  0.65920000  0.30180000  1
  C  C73  1  0.34110000  0.15920000  0.30180000  1
  C  C74  1  0.19990000  0.29320000  0.38790000  1
  C  C75  1  0.30010000  0.79320000  0.38790000  1
  C  C76  1  0.16700000  0.67840000  0.39260000  1
  C  C77  1  0.33300000  0.17840000  0.39260000  1
  C  C78  1  0.12620000  0.36870000  0.43390000  1
  C  C79  1  0.37380000  0.86870000  0.43390000  1
  C  C80  1  0.23680000  0.74590000  0.43590000  1
  C  C81  1  0.26320000  0.24590000  0.43590000  1
  C  C82  1  0.10300000  0.62070000  0.44010000  1
  C  C83  1  0.39700000  0.12070000  0.44010000  1
  C  C84  1  0.60300000  0.87930000  0.55990000  1
  C  C85  1  0.89700000  0.37930000  0.55990000  1
  C  C86  1  0.73680000  0.75410000  0.56410000  1
  C  C87  1  0.76320000  0.25410000  0.56410000  1
  C  C88  1  0.62620000  0.13130000  0.56610000  1
  C  C89  1  0.87380000  0.63130000  0.56610000  1
  C  C90  1  0.66700000  0.82160000  0.60740000  1
  C  C91  1  0.83300000  0.32160000  0.60740000  1
  C  C92  1  0.69990000  0.20680000  0.61210000  1
  C  C93  1  0.80010000  0.70680000  0.61210000  1
  C  C94  1  0.65890000  0.84080000  0.69820000  1
  C  C95  1  0.84110000  0.34080000  0.69820000  1
  C  C96  1  0.70750000  0.22540000  0.70370000  1
  C  C97  1  0.79250000  0.72540000  0.70370000  1
  C  C98  1  0.20510000  0.58280000  0.73640000  1
  C  C99  1  0.29490000  0.08280000  0.73640000  1
  C  C100  1  0.71990000  0.79170000  0.74440000  1
  C  C101  1  0.78010000  0.29170000  0.74440000  1
  C  C102  1  0.04350000  0.56720000  0.76730000  1
  C  C103  1  0.45650000  0.06720000  0.76730000  1
  C  C104  1  0.22890000  0.60810000  0.82490000  1
  C  C105  1  0.27110000  0.10810000  0.82490000  1
  C  C106  1  0.06030000  0.59060000  0.85580000  1
  C  C107  1  0.43970000  0.09060000  0.85580000  1
  C  C108  1  0.61480000  0.81600000  0.87060000  1
  C  C109  1  0.88520000  0.31600000  0.87060000  1
  C  C110  1  0.15640000  0.61390000  0.88620000  1
  C  C111  1  0.34360000  0.11390000  0.88620000  1
  C  C112  1  0.71530000  0.33200000  0.89400000  1
  C  C113  1  0.78470000  0.83200000  0.89400000  1
  C  C114  1  0.59950000  0.83800000  0.95830000  1
  C  C115  1  0.90050000  0.33800000  0.95830000  1
  C  C116  1  0.17490000  0.64130000  0.98230000  1
  C  C117  1  0.32510000  0.14130000  0.98230000  1
  C  C118  1  0.72990000  0.35310000  0.98240000  1
  C  C119  1  0.77010000  0.85310000  0.98240000  1
  N  N120  1  0.20720000  0.68780000  0.16110000  1
  N  N121  1  0.29280000  0.18780000  0.16110000  1
  N  N122  1  0.61440000  0.93700000  0.29460000  1
  N  N123  1  0.88560000  0.43700000  0.29460000  1
  N  N124  1  0.11440000  0.56300000  0.70540000  1
  N  N125  1  0.38560000  0.06300000  0.70540000  1
  N  N126  1  0.70720000  0.81220000  0.83890000  1
  N  N127  1  0.79280000  0.31220000  0.83890000  1
  O  O128  1  0.04880000  0.37670000  0.39090000  1
  O  O129  1  0.45120000  0.87670000  0.39090000  1
  O  O130  1  0.03030000  0.57790000  0.39810000  1
  O  O131  1  0.46970000  0.07790000  0.39810000  1
  O  O132  1  0.62740000  0.88150000  0.48270000  1
  O  O133  1  0.87260000  0.38150000  0.48270000  1
  O  O134  1  0.64520000  0.08360000  0.48890000  1
  O  O135  1  0.85480000  0.58360000  0.48890000  1
  O  O136  1  0.14520000  0.41640000  0.51110000  1
  O  O137  1  0.35480000  0.91640000  0.51110000  1
  O  O138  1  0.12740000  0.61850000  0.51730000  1
  O  O139  1  0.37260000  0.11850000  0.51730000  1
  O  O140  1  0.53030000  0.92210000  0.60190000  1
  O  O141  1  0.96970000  0.42210000  0.60190000  1
  O  O142  1  0.54880000  0.12330000  0.60910000  1
  O  O143  1  0.95120000  0.62330000  0.60910000  1
