# generated using pymatgen
data_CuP2H10(C4O3)2
_symmetry_space_group_name_H-M   'P 1'
_cell_length_a   7.02360000
_cell_length_b   9.85890000
_cell_length_c   10.06645501
_cell_angle_alpha   90.82850370
_cell_angle_beta   110.41731210
_cell_angle_gamma   90.00000000
_symmetry_Int_Tables_number   1
_chemical_formula_structural   CuP2H10(C4O3)2
_chemical_formula_sum   'Cu2 P4 H20 C16 O12'
_cell_volume   653.18249600
_cell_formula_units_Z   2
loop_
 _symmetry_equiv_pos_site_id
 _symmetry_equiv_pos_as_xyz
  1  'x, y, z'
loop_
 _atom_site_type_symbol
 _atom_site_label
 _atom_site_symmetry_multiplicity
 _atom_site_fract_x
 _atom_site_fract_y
 _atom_site_fract_z
 _atom_site_occupancy
  Cu  Cu0  1  0.06378000  0.75000000  0.00000000  1
  Cu  Cu1  1  0.93622000  0.25000000  1.00000000  1
  P  P2  1  0.87808000  0.99309000  0.79116000  1
  P  P3  1  0.91308000  0.49309000  0.79116000  1
  P  P4  1  0.08692000  0.50691000  0.20884000  1
  P  P5  1  0.12192000  0.00691000  0.20884000  1
  H  H6  1  0.66530000  0.19790000  0.60500000  1
  H  H7  1  0.49630000  0.53080000  0.40400000  1
  H  H8  1  0.46640000  0.59910000  0.25860000  1
  H  H9  1  0.59100000  0.46460000  0.29900000  1
  H  H10  1  0.93970000  0.69790000  0.60500000  1
  H  H11  1  0.00000000  0.29330000  0.60700000  1
  H  H12  1  0.70800000  0.96460000  0.29900000  1
  H  H13  1  0.20780000  0.90090000  0.74140000  1
  H  H14  1  0.09230000  0.96920000  0.59600000  1
  H  H15  1  0.90770000  0.03080000  0.40400000  1
  H  H16  1  0.79220000  0.09910000  0.25860000  1
  H  H17  1  0.29200000  0.03540000  0.70100000  1
  H  H18  1  0.00000000  0.70670000  0.39300000  1
  H  H19  1  0.06030000  0.30210000  0.39500000  1
  H  H20  1  0.40900000  0.53540000  0.70100000  1
  H  H21  1  0.53360000  0.40090000  0.74140000  1
  H  H22  1  0.50370000  0.46920000  0.59600000  1
  H  H23  1  0.33470000  0.80210000  0.39500000  1
  H  H24  1  0.60700000  0.79330000  0.60700000  1
  H  H25  1  0.39300000  0.20670000  0.39300000  1
  C  C26  1  0.56420000  0.87620000  0.56400000  1
  C  C27  1  0.59890000  0.11840000  0.56260000  1
  C  C28  1  0.66340000  0.99480000  0.62620000  1
  C  C29  1  0.47720000  0.51420000  0.30600000  1
  C  C30  1  0.96280000  0.49480000  0.62620000  1
  C  C31  1  0.96370000  0.61840000  0.56260000  1
  C  C32  1  0.99980000  0.37620000  0.56400000  1
  C  C33  1  0.17120000  0.98580000  0.69400000  1
  C  C34  1  0.82880000  0.01420000  0.30600000  1
  C  C35  1  0.00020000  0.62380000  0.43600000  1
  C  C36  1  0.03630000  0.38160000  0.43740000  1
  C  C37  1  0.03720000  0.50520000  0.37380000  1
  C  C38  1  0.52280000  0.48580000  0.69400000  1
  C  C39  1  0.33660000  0.00520000  0.37380000  1
  C  C40  1  0.40110000  0.88160000  0.43740000  1
  C  C41  1  0.43580000  0.12380000  0.43600000  1
  O  O42  1  0.30200000  0.43970000  0.24360000  1
  O  O43  1  0.16730000  0.91450000  0.10520000  1
  O  O44  1  0.90770000  0.34700000  0.82900000  1
  O  O45  1  0.92130000  0.84700000  0.82900000  1
  O  O46  1  0.06210000  0.58550000  0.89480000  1
  O  O47  1  0.05840000  0.06030000  0.75640000  1
  O  O48  1  0.94160000  0.93970000  0.24360000  1
  O  O49  1  0.93790000  0.41450000  0.10520000  1
  O  O50  1  0.07870000  0.15300000  0.17100000  1
  O  O51  1  0.09230000  0.65300000  0.17100000  1
  O  O52  1  0.83270000  0.08550000  0.89480000  1
  O  O53  1  0.69800000  0.56030000  0.75640000  1
