# generated using pymatgen
data_Co3H12(C11O5)2
_symmetry_space_group_name_H-M   'P 1'
_cell_length_a   6.41300000
_cell_length_b   10.91100000
_cell_length_c   17.04500000
_cell_angle_alpha   105.86700000
_cell_angle_beta   90.00000000
_cell_angle_gamma   90.00000000
_symmetry_Int_Tables_number   1
_chemical_formula_structural   Co3H12(C11O5)2
_chemical_formula_sum   'Co6 H24 C44 O20'
_cell_volume   1147.23462755
_cell_formula_units_Z   2
loop_
 _symmetry_equiv_pos_site_id
 _symmetry_equiv_pos_as_xyz
  1  'x, y, z'
loop_
 _atom_site_type_symbol
 _atom_site_label
 _atom_site_symmetry_multiplicity
 _atom_site_fract_x
 _atom_site_fract_y
 _atom_site_fract_z
 _atom_site_occupancy
  Co  Co0  1  0.99644000  0.53436000  0.41579000  1
  Co  Co1  1  0.50356000  0.53436000  0.91579000  1
  Co  Co2  1  0.00000000  0.50000000  1.00000000  1
  Co  Co3  1  0.50000000  0.50000000  0.50000000  1
  Co  Co4  1  0.49644000  0.46564000  0.08421000  1
  Co  Co5  1  0.00356000  0.46564000  0.58421000  1
  H  H6  1  0.26390000  0.97350000  0.30500000  1
  H  H7  1  0.23610000  0.97350000  0.80500000  1
  H  H8  1  0.96960000  0.94910000  0.58770000  1
  H  H9  1  0.53040000  0.94910000  0.08770000  1
  H  H10  1  0.38190000  0.85620000  0.56580000  1
  H  H11  1  0.11810000  0.85620000  0.06580000  1
  H  H12  1  0.32760000  0.79990000  0.69840000  1
  H  H13  1  0.17240000  0.79990000  0.19840000  1
  H  H14  1  0.88530000  0.78290000  0.80000000  1
  H  H15  1  0.61470000  0.78290000  0.30000000  1
  H  H16  1  0.30970000  0.64770000  0.04650000  1
  H  H17  1  0.19030000  0.64770000  0.54650000  1
  H  H18  1  0.80970000  0.35230000  0.45350000  1
  H  H19  1  0.69030000  0.35230000  0.95350000  1
  H  H20  1  0.38530000  0.21710000  0.70000000  1
  H  H21  1  0.11470000  0.21710000  0.20000000  1
  H  H22  1  0.82760000  0.20010000  0.80160000  1
  H  H23  1  0.67240000  0.20010000  0.30160000  1
  H  H24  1  0.88190000  0.14380000  0.93420000  1
  H  H25  1  0.61810000  0.14380000  0.43420000  1
  H  H26  1  0.46960000  0.05090000  0.91230000  1
  H  H27  1  0.03040000  0.05090000  0.41230000  1
  H  H28  1  0.76390000  0.02650000  0.19500000  1
  H  H29  1  0.73610000  0.02650000  0.69500000  1
  C  C30  1  0.99440000  0.98130000  0.36920000  1
  C  C31  1  0.50560000  0.98130000  0.86920000  1
  C  C32  1  0.84780000  0.96160000  0.93820000  1
  C  C33  1  0.65220000  0.96160000  0.43820000  1
  C  C34  1  0.36590000  0.93550000  0.80460000  1
  C  C35  1  0.13410000  0.93550000  0.30460000  1
  C  C36  1  0.80020000  0.92200000  0.36880000  1
  C  C37  1  0.69980000  0.92200000  0.86880000  1
  C  C38  1  0.43070000  0.91510000  0.53980000  1
  C  C39  1  0.06930000  0.91510000  0.03980000  1
  C  C40  1  0.91510000  0.87770000  0.97980000  1
  C  C41  1  0.58490000  0.87770000  0.47980000  1
  C  C42  1  0.42310000  0.83270000  0.73990000  1
  C  C43  1  0.07690000  0.83270000  0.23990000  1
  C  C44  1  0.75550000  0.82150000  0.80140000  1
  C  C45  1  0.74450000  0.82150000  0.30140000  1
  C  C46  1  0.88320000  0.77860000  0.23580000  1
  C  C47  1  0.61680000  0.77860000  0.73580000  1
  C  C48  1  0.82960000  0.74100000  0.96350000  1
  C  C49  1  0.67040000  0.74100000  0.46350000  1
  C  C50  1  0.81510000  0.66960000  0.16400000  1
  C  C51  1  0.68490000  0.66960000  0.66400000  1
  C  C52  1  0.31510000  0.33040000  0.33600000  1
  C  C53  1  0.18490000  0.33040000  0.83600000  1
  C  C54  1  0.32960000  0.25900000  0.53650000  1
  C  C55  1  0.17040000  0.25900000  0.03650000  1
  C  C56  1  0.38320000  0.22140000  0.26420000  1
  C  C57  1  0.11680000  0.22140000  0.76420000  1
  C  C58  1  0.25550000  0.17850000  0.69860000  1
  C  C59  1  0.24450000  0.17850000  0.19860000  1
  C  C60  1  0.92310000  0.16730000  0.76010000  1
  C  C61  1  0.57690000  0.16730000  0.26010000  1
  C  C62  1  0.41510000  0.12230000  0.52020000  1
  C  C63  1  0.08490000  0.12230000  0.02020000  1
  C  C64  1  0.93070000  0.08490000  0.96020000  1
  C  C65  1  0.56930000  0.08490000  0.46020000  1
  C  C66  1  0.30020000  0.07800000  0.13120000  1
  C  C67  1  0.19980000  0.07800000  0.63120000  1
  C  C68  1  0.86590000  0.06450000  0.69540000  1
  C  C69  1  0.63410000  0.06450000  0.19540000  1
  C  C70  1  0.34780000  0.03840000  0.56180000  1
  C  C71  1  0.15220000  0.03840000  0.06180000  1
  C  C72  1  0.49440000  0.01870000  0.13080000  1
  C  C73  1  0.00560000  0.01870000  0.63080000  1
  O  O74  1  0.86160000  0.72410000  0.46540000  1
  O  O75  1  0.63840000  0.72410000  0.96540000  1
  O  O76  1  0.96740000  0.65670000  0.95140000  1
  O  O77  1  0.53260000  0.65670000  0.45140000  1
  O  O78  1  0.87360000  0.64010000  0.65480000  1
  O  O79  1  0.62640000  0.64010000  0.15480000  1
  O  O80  1  0.96270000  0.61580000  0.11850000  1
  O  O81  1  0.53730000  0.61580000  0.61850000  1
  O  O82  1  0.30980000  0.55690000  0.01740000  1
  O  O83  1  0.19020000  0.55690000  0.51740000  1
  O  O84  1  0.80980000  0.44310000  0.48260000  1
  O  O85  1  0.69020000  0.44310000  0.98260000  1
  O  O86  1  0.46270000  0.38420000  0.38150000  1
  O  O87  1  0.03730000  0.38420000  0.88150000  1
  O  O88  1  0.37360000  0.35990000  0.84520000  1
  O  O89  1  0.12640000  0.35990000  0.34520000  1
  O  O90  1  0.46740000  0.34330000  0.54860000  1
  O  O91  1  0.03260000  0.34330000  0.04860000  1
  O  O92  1  0.36160000  0.27590000  0.03460000  1
  O  O93  1  0.13840000  0.27590000  0.53460000  1
