# generated using pymatgen
data_Mn2H39C63(N2O)6
_symmetry_space_group_name_H-M   'P 1'
_cell_length_a   14.04500000
_cell_length_b   17.20300000
_cell_length_c   17.20300000
_cell_angle_alpha   120.00000000
_cell_angle_beta   90.00000000
_cell_angle_gamma   90.00000000
_symmetry_Int_Tables_number   1
_chemical_formula_structural   Mn2H39C63(N2O)6
_chemical_formula_sum   'Mn4 H78 C126 N24 O12'
_cell_volume   3599.65396417
_cell_formula_units_Z   2
loop_
 _symmetry_equiv_pos_site_id
 _symmetry_equiv_pos_as_xyz
  1  'x, y, z'
loop_
 _atom_site_type_symbol
 _atom_site_label
 _atom_site_symmetry_multiplicity
 _atom_site_fract_x
 _atom_site_fract_y
 _atom_site_fract_z
 _atom_site_occupancy
  Mn  Mn0  1  0.39401000  0.66666667  0.33333333  1
  Mn  Mn1  1  0.10599000  0.66666667  0.33333333  1
  Mn  Mn2  1  0.89401000  0.33333333  0.66666667  1
  Mn  Mn3  1  0.60599000  0.33333333  0.66666667  1
  H  H4  1  0.48110000  0.99150000  0.21250000  1
  H  H5  1  0.01890000  0.99150000  0.77900000  1
  H  H6  1  0.08620000  0.99020000  0.31490000  1
  H  H7  1  0.41380000  0.99020000  0.67530000  1
  H  H8  1  0.11720000  0.93800000  0.42440000  1
  H  H9  1  0.38280000  0.93800000  0.51360000  1
  H  H10  1  0.37150000  0.87650000  0.15440000  1
  H  H11  1  0.12850000  0.87650000  0.72210000  1
  H  H12  1  0.12850000  0.84560000  0.12350000  1
  H  H13  1  0.37150000  0.84560000  0.72210000  1
  H  H14  1  0.75000000  0.82910000  0.41455000  1
  H  H15  1  0.13340000  0.79910000  0.22900000  1
  H  H16  1  0.36660000  0.79910000  0.57010000  1
  H  H17  1  0.91670000  0.78950000  0.36700000  1
  H  H18  1  0.58330000  0.78950000  0.42250000  1
  H  H19  1  0.01890000  0.78750000  0.00850000  1
  H  H20  1  0.48110000  0.78750000  0.77900000  1
  H  H21  1  0.98110000  0.77900000  0.78750000  1
  H  H22  1  0.51890000  0.77900000  0.99150000  1
  H  H23  1  0.36660000  0.77100000  0.20090000  1
  H  H24  1  0.13340000  0.77100000  0.57010000  1
  H  H25  1  0.87150000  0.72210000  0.84560000  1
  H  H26  1  0.62850000  0.72210000  0.87650000  1
  H  H27  1  0.41380000  0.68510000  0.00980000  1
  H  H28  1  0.08620000  0.68510000  0.67530000  1
  H  H29  1  0.58620000  0.67530000  0.68510000  1
  H  H30  1  0.91380000  0.67530000  0.99020000  1
  H  H31  1  0.58330000  0.63300000  0.21050000  1
  H  H32  1  0.91670000  0.63300000  0.42250000  1
  H  H33  1  0.75000000  0.58545000  0.17090000  1
  H  H34  1  0.75000000  0.58545000  0.41455000  1
  H  H35  1  0.91670000  0.57750000  0.21050000  1
  H  H36  1  0.58330000  0.57750000  0.36700000  1
  H  H37  1  0.38280000  0.57560000  0.06200000  1
  H  H38  1  0.11720000  0.57560000  0.51360000  1
  H  H39  1  0.63340000  0.57010000  0.77100000  1
  H  H40  1  0.86660000  0.57010000  0.79910000  1
  H  H41  1  0.61720000  0.51360000  0.57560000  1
  H  H42  1  0.88280000  0.51360000  0.93800000  1
  H  H43  1  0.11720000  0.48640000  0.06200000  1
  H  H44  1  0.38280000  0.48640000  0.42440000  1
  H  H45  1  0.13340000  0.42990000  0.20090000  1
  H  H46  1  0.36660000  0.42990000  0.22900000  1
  H  H47  1  0.88280000  0.42440000  0.48640000  1
  H  H48  1  0.61720000  0.42440000  0.93800000  1
  H  H49  1  0.41670000  0.42250000  0.63300000  1
  H  H50  1  0.08330000  0.42250000  0.78950000  1
  H  H51  1  0.25000000  0.41455000  0.58545000  1
  H  H52  1  0.25000000  0.41455000  0.82910000  1
  H  H53  1  0.08330000  0.36700000  0.57750000  1
  H  H54  1  0.41670000  0.36700000  0.78950000  1
  H  H55  1  0.08620000  0.32470000  0.00980000  1
  H  H56  1  0.41380000  0.32470000  0.31490000  1
  H  H57  1  0.91380000  0.31490000  0.32470000  1
  H  H58  1  0.58620000  0.31490000  0.99020000  1
  H  H59  1  0.37150000  0.27790000  0.12350000  1
  H  H60  1  0.12850000  0.27790000  0.15440000  1
  H  H61  1  0.86660000  0.22900000  0.42990000  1
  H  H62  1  0.63340000  0.22900000  0.79910000  1
  H  H63  1  0.48110000  0.22100000  0.00850000  1
  H  H64  1  0.01890000  0.22100000  0.21250000  1
  H  H65  1  0.51890000  0.21250000  0.22100000  1
  H  H66  1  0.98110000  0.21250000  0.99150000  1
  H  H67  1  0.41670000  0.21050000  0.57750000  1
  H  H68  1  0.08330000  0.21050000  0.63300000  1
  H  H69  1  0.63340000  0.20090000  0.42990000  1
  H  H70  1  0.86660000  0.20090000  0.77100000  1
  H  H71  1  0.25000000  0.17090000  0.58545000  1
  H  H72  1  0.62850000  0.15440000  0.27790000  1
  H  H73  1  0.87150000  0.15440000  0.87650000  1
  H  H74  1  0.87150000  0.12350000  0.27790000  1
  H  H75  1  0.62850000  0.12350000  0.84560000  1
  H  H76  1  0.61720000  0.06200000  0.48640000  1
  H  H77  1  0.88280000  0.06200000  0.57560000  1
  H  H78  1  0.58620000  0.00980000  0.32470000  1
  H  H79  1  0.91380000  0.00980000  0.68510000  1
  H  H80  1  0.98110000  0.00850000  0.22100000  1
  H  H81  1  0.51890000  0.00850000  0.78750000  1
  C  C82  1  0.17050000  0.96900000  0.45770000  1
  C  C83  1  0.32950000  0.96900000  0.51130000  1
  C  C84  1  0.54280000  0.96270000  0.30040000  1
  C  C85  1  0.95720000  0.96270000  0.66230000  1
  C  C86  1  0.47970000  0.95130000  0.23380000  1
  C  C87  1  0.02030000  0.95130000  0.71750000  1
  C  C88  1  0.67140000  0.93820000  0.44230000  1
  C  C89  1  0.82860000  0.93820000  0.49590000  1
  C  C90  1  0.25000000  0.92210000  0.46105000  1
  C  C91  1  0.53820000  0.90010000  0.32910000  1
  C  C92  1  0.96180000  0.90010000  0.57100000  1
  C  C93  1  0.75000000  0.89150000  0.44575000  1
  C  C94  1  0.41400000  0.88110000  0.19800000  1
  C  C95  1  0.08600000  0.88110000  0.68310000  1
  C  C96  1  0.47440000  0.82760000  0.29180000  1
  C  C97  1  0.02560000  0.82760000  0.53580000  1
  C  C98  1  0.25000000  0.82090000  0.41045000  1
  C  C99  1  0.41020000  0.81790000  0.22550000  1
  C  C100  1  0.08980000  0.81790000  0.59240000  1
  C  C101  1  0.55870000  0.81200000  0.38750000  1
  C  C102  1  0.94130000  0.81200000  0.42450000  1
  C  C103  1  0.08600000  0.80200000  0.11890000  1
  C  C104  1  0.41400000  0.80200000  0.68310000  1
  C  C105  1  0.08980000  0.77450000  0.18210000  1
  C  C106  1  0.41020000  0.77450000  0.59240000  1
  C  C107  1  0.02030000  0.76620000  0.04870000  1
  C  C108  1  0.47970000  0.76620000  0.71750000  1
  C  C109  1  0.97970000  0.71750000  0.76620000  1
  C  C110  1  0.52030000  0.71750000  0.95130000  1
  C  C111  1  0.02560000  0.70820000  0.17240000  1
  C  C112  1  0.47440000  0.70820000  0.53580000  1
  C  C113  1  0.95720000  0.69960000  0.03730000  1
  C  C114  1  0.54280000  0.69960000  0.66230000  1
  C  C115  1  0.91400000  0.68310000  0.80200000  1
  C  C116  1  0.58600000  0.68310000  0.88110000  1
  C  C117  1  0.96180000  0.67090000  0.09990000  1
  C  C118  1  0.53820000  0.67090000  0.57100000  1
  C  C119  1  0.04280000  0.66230000  0.69960000  1
  C  C120  1  0.45720000  0.66230000  0.96270000  1
  C  C121  1  0.94130000  0.61250000  0.18800000  1
  C  C122  1  0.55870000  0.61250000  0.42450000  1
  C  C123  1  0.91020000  0.59240000  0.77450000  1
  C  C124  1  0.58980000  0.59240000  0.81790000  1
  C  C125  1  0.25000000  0.58955000  0.17910000  1
  C  C126  1  0.25000000  0.58955000  0.41045000  1
  C  C127  1  0.55870000  0.57550000  0.18800000  1
  C  C128  1  0.94130000  0.57550000  0.38750000  1
  C  C129  1  0.03820000  0.57100000  0.67090000  1
  C  C130  1  0.46180000  0.57100000  0.90010000  1
  C  C131  1  0.82860000  0.55770000  0.06180000  1
  C  C132  1  0.67140000  0.55770000  0.49590000  1
  C  C133  1  0.75000000  0.55425000  0.10850000  1
  C  C134  1  0.75000000  0.55425000  0.44575000  1
  C  C135  1  0.32950000  0.54230000  0.03100000  1
  C  C136  1  0.17050000  0.54230000  0.51130000  1
  C  C137  1  0.25000000  0.53895000  0.07790000  1
  C  C138  1  0.25000000  0.53895000  0.46105000  1
  C  C139  1  0.97440000  0.53580000  0.70820000  1
  C  C140  1  0.52560000  0.53580000  0.82760000  1
  C  C141  1  0.67050000  0.51130000  0.54230000  1
  C  C142  1  0.82950000  0.51130000  0.96900000  1
  C  C143  1  0.67140000  0.50410000  0.06180000  1
  C  C144  1  0.82860000  0.50410000  0.44230000  1
  C  C145  1  0.17140000  0.49590000  0.55770000  1
  C  C146  1  0.32860000  0.49590000  0.93820000  1
  C  C147  1  0.17050000  0.48870000  0.03100000  1
  C  C148  1  0.32950000  0.48870000  0.45770000  1
  C  C149  1  0.47440000  0.46420000  0.17240000  1
  C  C150  1  0.02560000  0.46420000  0.29180000  1
  C  C151  1  0.75000000  0.46105000  0.53895000  1
  C  C152  1  0.75000000  0.46105000  0.92210000  1
  C  C153  1  0.82950000  0.45770000  0.48870000  1
  C  C154  1  0.67050000  0.45770000  0.96900000  1
  C  C155  1  0.25000000  0.44575000  0.55425000  1
  C  C156  1  0.25000000  0.44575000  0.89150000  1
  C  C157  1  0.32860000  0.44230000  0.50410000  1
  C  C158  1  0.17140000  0.44230000  0.93820000  1
  C  C159  1  0.53820000  0.42900000  0.09990000  1
  C  C160  1  0.96180000  0.42900000  0.32910000  1
  C  C161  1  0.05870000  0.42450000  0.61250000  1
  C  C162  1  0.44130000  0.42450000  0.81200000  1
  C  C163  1  0.75000000  0.41045000  0.58955000  1
  C  C164  1  0.75000000  0.41045000  0.82090000  1
  C  C165  1  0.41020000  0.40760000  0.18210000  1
  C  C166  1  0.08980000  0.40760000  0.22550000  1
  C  C167  1  0.44130000  0.38750000  0.57550000  1
  C  C168  1  0.05870000  0.38750000  0.81200000  1
  C  C169  1  0.54280000  0.33770000  0.03730000  1
  C  C170  1  0.95720000  0.33770000  0.30040000  1
  C  C171  1  0.46180000  0.32910000  0.42900000  1
  C  C172  1  0.03820000  0.32910000  0.90010000  1
  C  C173  1  0.41400000  0.31690000  0.11890000  1
  C  C174  1  0.08600000  0.31690000  0.19800000  1
  C  C175  1  0.45720000  0.30040000  0.33770000  1
  C  C176  1  0.04280000  0.30040000  0.96270000  1
  C  C177  1  0.52560000  0.29180000  0.46420000  1
  C  C178  1  0.97440000  0.29180000  0.82760000  1
  C  C179  1  0.47970000  0.28250000  0.04870000  1
  C  C180  1  0.02030000  0.28250000  0.23380000  1
  C  C181  1  0.52030000  0.23380000  0.28250000  1
  C  C182  1  0.97970000  0.23380000  0.95130000  1
  C  C183  1  0.58980000  0.22550000  0.40760000  1
  C  C184  1  0.91020000  0.22550000  0.81790000  1
  C  C185  1  0.58600000  0.19800000  0.31690000  1
  C  C186  1  0.91400000  0.19800000  0.88110000  1
  C  C187  1  0.05870000  0.18800000  0.57550000  1
  C  C188  1  0.44130000  0.18800000  0.61250000  1
  C  C189  1  0.91020000  0.18210000  0.40760000  1
  C  C190  1  0.58980000  0.18210000  0.77450000  1
  C  C191  1  0.75000000  0.17910000  0.58955000  1
  C  C192  1  0.97440000  0.17240000  0.46420000  1
  C  C193  1  0.52560000  0.17240000  0.70820000  1
  C  C194  1  0.91400000  0.11890000  0.31690000  1
  C  C195  1  0.58600000  0.11890000  0.80200000  1
  C  C196  1  0.25000000  0.10850000  0.55425000  1
  C  C197  1  0.03820000  0.09990000  0.42900000  1
  C  C198  1  0.46180000  0.09990000  0.67090000  1
  C  C199  1  0.75000000  0.07790000  0.53895000  1
  C  C200  1  0.17140000  0.06180000  0.50410000  1
  C  C201  1  0.32860000  0.06180000  0.55770000  1
  C  C202  1  0.97970000  0.04870000  0.28250000  1
  C  C203  1  0.52030000  0.04870000  0.76620000  1
  C  C204  1  0.04280000  0.03730000  0.33770000  1
  C  C205  1  0.45720000  0.03730000  0.69960000  1
  C  C206  1  0.67050000  0.03100000  0.48870000  1
  C  C207  1  0.82950000  0.03100000  0.54230000  1
  N  N208  1  0.59190000  0.88860000  0.39120000  1
  N  N209  1  0.90810000  0.88860000  0.49740000  1
  N  N210  1  0.48880000  0.77320000  0.33000000  1
  N  N211  1  0.01120000  0.77320000  0.44320000  1
  N  N212  1  0.01120000  0.67000000  0.22680000  1
  N  N213  1  0.48880000  0.67000000  0.44320000  1
  N  N214  1  0.90810000  0.60880000  0.11140000  1
  N  N215  1  0.59190000  0.60880000  0.49740000  1
  N  N216  1  0.48880000  0.55680000  0.22680000  1
  N  N217  1  0.01120000  0.55680000  0.33000000  1
  N  N218  1  0.59190000  0.50260000  0.11140000  1
  N  N219  1  0.90810000  0.50260000  0.39120000  1
  N  N220  1  0.09190000  0.49740000  0.60880000  1
  N  N221  1  0.40810000  0.49740000  0.88860000  1
  N  N222  1  0.98880000  0.44320000  0.67000000  1
  N  N223  1  0.51120000  0.44320000  0.77320000  1
  N  N224  1  0.40810000  0.39120000  0.50260000  1
  N  N225  1  0.09190000  0.39120000  0.88860000  1
  N  N226  1  0.51120000  0.33000000  0.55680000  1
  N  N227  1  0.98880000  0.33000000  0.77320000  1
  N  N228  1  0.98880000  0.22680000  0.55680000  1
  N  N229  1  0.51120000  0.22680000  0.67000000  1
  N  N230  1  0.09190000  0.11140000  0.50260000  1
  N  N231  1  0.40810000  0.11140000  0.60880000  1
  O  O232  1  0.18241000  0.78342000  0.35688000  1
  O  O233  1  0.31759000  0.78342000  0.42654000  1
  O  O234  1  0.31759000  0.64312000  0.21658000  1
  O  O235  1  0.18241000  0.64312000  0.42654000  1
  O  O236  1  0.18241000  0.57346000  0.21658000  1
  O  O237  1  0.31759000  0.57346000  0.35688000  1
  O  O238  1  0.68241000  0.42654000  0.64312000  1
  O  O239  1  0.81759000  0.42654000  0.78342000  1
  O  O240  1  0.81759000  0.35688000  0.57346000  1
  O  O241  1  0.68241000  0.35688000  0.78342000  1
  O  O242  1  0.68241000  0.21658000  0.57346000  1
  O  O243  1  0.81759000  0.21658000  0.64312000  1
