# generated using pymatgen
data_Mn4H21C15(N2O)6
_symmetry_space_group_name_H-M   'P 1'
_cell_length_a   8.06680000
_cell_length_b   13.53240000
_cell_length_c   13.53240000
_cell_angle_alpha   120.00000000
_cell_angle_beta   90.00000000
_cell_angle_gamma   90.00000000
_symmetry_Int_Tables_number   1
_chemical_formula_structural   Mn4H21C15(N2O)6
_chemical_formula_sum   'Mn8 H42 C30 N24 O12'
_cell_volume   1279.32702527
_cell_formula_units_Z   2
loop_
 _symmetry_equiv_pos_site_id
 _symmetry_equiv_pos_as_xyz
  1  'x, y, z'
loop_
 _atom_site_type_symbol
 _atom_site_label
 _atom_site_symmetry_multiplicity
 _atom_site_fract_x
 _atom_site_fract_y
 _atom_site_fract_z
 _atom_site_occupancy
  Mn  Mn0  1  0.45439000  0.96405000  0.66213000  1
  Mn  Mn1  1  0.45439000  0.69808000  0.03595000  1
  Mn  Mn2  1  0.07899000  0.66666667  0.33333333  1
  Mn  Mn3  1  0.95439000  0.66213000  0.69808000  1
  Mn  Mn4  1  0.45439000  0.33787000  0.30192000  1
  Mn  Mn5  1  0.57899000  0.33333333  0.66666667  1
  Mn  Mn6  1  0.95439000  0.30192000  0.96405000  1
  Mn  Mn7  1  0.95439000  0.03595000  0.33787000  1
  H  H8  1  0.69910000  0.98240000  0.53980000  1
  H  H9  1  0.94370000  0.95620000  0.60360000  1
  H  H10  1  0.84850000  0.91680000  0.67920000  1
  H  H11  1  0.55910000  0.91220000  0.19780000  1
  H  H12  1  0.70530000  0.86560000  0.51720000  1
  H  H13  1  0.29230000  0.86360000  0.28700000  1
  H  H14  1  0.55500000  0.84570000  0.25590000  1
  H  H15  1  0.55910000  0.80220000  0.71440000  1
  H  H16  1  0.84850000  0.76240000  0.08320000  1
  H  H17  1  0.55500000  0.74410000  0.58980000  1
  H  H18  1  0.05910000  0.71440000  0.91220000  1
  H  H19  1  0.29230000  0.71300000  0.57660000  1
  H  H20  1  0.34850000  0.67920000  0.76240000  1
  H  H21  1  0.70530000  0.65160000  0.13440000  1
  H  H22  1  0.94370000  0.64740000  0.04380000  1
  H  H23  1  0.44370000  0.60360000  0.64740000  1
  H  H24  1  0.05500000  0.58980000  0.84570000  1
  H  H25  1  0.79230000  0.57660000  0.86360000  1
  H  H26  1  0.69910000  0.55740000  0.01760000  1
  H  H27  1  0.19910000  0.53980000  0.55740000  1
  H  H28  1  0.20530000  0.51720000  0.65160000  1
  H  H29  1  0.70530000  0.48280000  0.34840000  1
  H  H30  1  0.69910000  0.46020000  0.44260000  1
  H  H31  1  0.19910000  0.44260000  0.98240000  1
  H  H32  1  0.29230000  0.42340000  0.13640000  1
  H  H33  1  0.55500000  0.41020000  0.15430000  1
  H  H34  1  0.94370000  0.39640000  0.35260000  1
  H  H35  1  0.44370000  0.35260000  0.95620000  1
  H  H36  1  0.20530000  0.34840000  0.86560000  1
  H  H37  1  0.84850000  0.32080000  0.23760000  1
  H  H38  1  0.79230000  0.28700000  0.42340000  1
  H  H39  1  0.55910000  0.28560000  0.08780000  1
  H  H40  1  0.05500000  0.25590000  0.41020000  1
  H  H41  1  0.34850000  0.23760000  0.91680000  1
  H  H42  1  0.05910000  0.19780000  0.28560000  1
  H  H43  1  0.05500000  0.15430000  0.74410000  1
  H  H44  1  0.79230000  0.13640000  0.71300000  1
  H  H45  1  0.20530000  0.13440000  0.48280000  1
  H  H46  1  0.05910000  0.08780000  0.80220000  1
  H  H47  1  0.34850000  0.08320000  0.32080000  1
  H  H48  1  0.44370000  0.04380000  0.39640000  1
  H  H49  1  0.19910000  0.01760000  0.46020000  1
  C  C50  1  0.84380000  0.96740000  0.64790000  1
  C  C51  1  0.33610000  0.90865000  0.25444000  1
  C  C52  1  0.21870000  0.88972000  0.15782000  1
  C  C53  1  0.21870000  0.84218000  0.73190000  1
  C  C54  1  0.22390000  0.79382000  0.43971000  1
  C  C55  1  0.95160000  0.78764000  0.32276000  1
  C  C56  1  0.33610000  0.74556000  0.65421000  1
  C  C57  1  0.71870000  0.73190000  0.88972000  1
  C  C58  1  0.84380000  0.68050000  0.03260000  1
  C  C59  1  0.95160000  0.67724000  0.46488000  1
  C  C60  1  0.83610000  0.65421000  0.90865000  1
  C  C61  1  0.34380000  0.64790000  0.68050000  1
  C  C62  1  0.22390000  0.64589000  0.20618000  1
  C  C63  1  0.22390000  0.56029000  0.35411000  1
  C  C64  1  0.95160000  0.53512000  0.21236000  1
  C  C65  1  0.45160000  0.46488000  0.78764000  1
  C  C66  1  0.72390000  0.43971000  0.64589000  1
  C  C67  1  0.72390000  0.35411000  0.79382000  1
  C  C68  1  0.84380000  0.35210000  0.31950000  1
  C  C69  1  0.33610000  0.34579000  0.09135000  1
  C  C70  1  0.45160000  0.32276000  0.53512000  1
  C  C71  1  0.34380000  0.31950000  0.96740000  1
  C  C72  1  0.21870000  0.26810000  0.11028000  1
  C  C73  1  0.83610000  0.25444000  0.34579000  1
  C  C74  1  0.45160000  0.21236000  0.67724000  1
  C  C75  1  0.72390000  0.20618000  0.56029000  1
  C  C76  1  0.71870000  0.15782000  0.26810000  1
  C  C77  1  0.71870000  0.11028000  0.84218000  1
  C  C78  1  0.83610000  0.09135000  0.74556000  1
  C  C79  1  0.34380000  0.03260000  0.35210000  1
  N  N80  1  0.69750000  0.93898000  0.57297000  1
  N  N81  1  0.31030000  0.86798000  0.49947000  1
  N  N82  1  0.89480000  0.86494000  0.32135000  1
  N  N83  1  0.49940000  0.86182000  0.20801000  1
  N  N84  1  0.49940000  0.79199000  0.65381000  1
  N  N85  1  0.89480000  0.67865000  0.54359000  1
  N  N86  1  0.99940000  0.65381000  0.86182000  1
  N  N87  1  0.69750000  0.63399000  0.06102000  1
  N  N88  1  0.31030000  0.63149000  0.13202000  1
  N  N89  1  0.19750000  0.57297000  0.63399000  1
  N  N90  1  0.39480000  0.54359000  0.86494000  1
  N  N91  1  0.31030000  0.50053000  0.36851000  1
  N  N92  1  0.81030000  0.49947000  0.63149000  1
  N  N93  1  0.89480000  0.45641000  0.13506000  1
  N  N94  1  0.69750000  0.42703000  0.36601000  1
  N  N95  1  0.81030000  0.36851000  0.86798000  1
  N  N96  1  0.19750000  0.36601000  0.93898000  1
  N  N97  1  0.49940000  0.34619000  0.13818000  1
  N  N98  1  0.39480000  0.32135000  0.45641000  1
  N  N99  1  0.99940000  0.20801000  0.34619000  1
  N  N100  1  0.99940000  0.13818000  0.79199000  1
  N  N101  1  0.39480000  0.13506000  0.67865000  1
  N  N102  1  0.81030000  0.13202000  0.50053000  1
  N  N103  1  0.19750000  0.06102000  0.42703000  1
  O  O104  1  0.09290000  0.95067000  0.18111000  1
  O  O105  1  0.25260000  0.94243000  0.75390000  1
  O  O106  1  0.09290000  0.81889000  0.76956000  1
  O  O107  1  0.25260000  0.81147000  0.05757000  1
  O  O108  1  0.59290000  0.76956000  0.95067000  1
  O  O109  1  0.75260000  0.75390000  0.81147000  1
  O  O110  1  0.25260000  0.24610000  0.18853000  1
  O  O111  1  0.09290000  0.23044000  0.04933000  1
  O  O112  1  0.75260000  0.18853000  0.94243000  1
  O  O113  1  0.59290000  0.18111000  0.23044000  1
  O  O114  1  0.75260000  0.05757000  0.24610000  1
  O  O115  1  0.59290000  0.04933000  0.81889000  1
