# generated using pymatgen
data_AgH6C8N3
_symmetry_space_group_name_H-M   'P 1'
_cell_length_a   5.77820000
_cell_length_b   16.10090000
_cell_length_c   20.40810000
_cell_angle_alpha   90.00000000
_cell_angle_beta   90.00000000
_cell_angle_gamma   94.67400000
_symmetry_Int_Tables_number   1
_chemical_formula_structural   AgH6C8N3
_chemical_formula_sum   'Ag8 H48 C64 N24'
_cell_volume   1892.33764361
_cell_formula_units_Z   8
loop_
 _symmetry_equiv_pos_site_id
 _symmetry_equiv_pos_as_xyz
  1  'x, y, z'
loop_
 _atom_site_type_symbol
 _atom_site_label
 _atom_site_symmetry_multiplicity
 _atom_site_fract_x
 _atom_site_fract_y
 _atom_site_fract_z
 _atom_site_occupancy
  Ag  Ag0  1  0.80857000  0.10284000  0.92700000  1
  Ag  Ag1  1  0.80857000  0.60284000  0.57300000  1
  Ag  Ag2  1  0.71179000  0.45910000  0.46920000  1
  Ag  Ag3  1  0.71179000  0.95910000  0.03080000  1
  Ag  Ag4  1  0.28821000  0.04090000  0.96920000  1
  Ag  Ag5  1  0.28821000  0.54090000  0.53080000  1
  Ag  Ag6  1  0.19143000  0.39716000  0.42700000  1
  Ag  Ag7  1  0.19143000  0.89716000  0.07300000  1
  H  H8  1  0.85320000  0.77860000  0.47050000  1
  H  H9  1  0.85320000  0.27860000  0.02950000  1
  H  H10  1  0.84580000  0.88810000  0.39370000  1
  H  H11  1  0.84580000  0.38810000  0.10630000  1
  H  H12  1  0.82070000  0.99610000  0.32060000  1
  H  H13  1  0.82070000  0.49610000  0.17940000  1
  H  H14  1  0.80910000  0.58950000  0.76920000  1
  H  H15  1  0.80910000  0.08950000  0.73080000  1
  H  H16  1  0.80360000  0.69960000  0.84120000  1
  H  H17  1  0.80360000  0.19960000  0.65880000  1
  H  H18  1  0.79250000  0.32350000  0.31080000  1
  H  H19  1  0.79250000  0.82350000  0.18920000  1
  H  H20  1  0.77970000  0.81280000  0.91100000  1
  H  H21  1  0.77970000  0.31280000  0.58900000  1
  H  H22  1  0.73100000  0.72460000  0.26990000  1
  H  H23  1  0.73100000  0.22460000  0.23010000  1
  H  H24  1  0.69920000  0.96320000  0.79940000  1
  H  H25  1  0.69920000  0.46320000  0.70060000  1
  H  H26  1  0.69300000  0.62070000  0.35450000  1
  H  H27  1  0.69300000  0.12070000  0.14550000  1
  H  H28  1  0.67190000  0.37110000  0.78670000  1
  H  H29  1  0.67190000  0.87110000  0.71330000  1
  H  H30  1  0.63070000  0.26970000  0.86590000  1
  H  H31  1  0.63070000  0.76970000  0.63410000  1
  H  H32  1  0.36930000  0.23030000  0.36590000  1
  H  H33  1  0.36930000  0.73030000  0.13410000  1
  H  H34  1  0.32810000  0.12890000  0.28670000  1
  H  H35  1  0.32810000  0.62890000  0.21330000  1
  H  H36  1  0.30700000  0.87930000  0.85450000  1
  H  H37  1  0.30700000  0.37930000  0.64550000  1
  H  H38  1  0.30080000  0.53680000  0.29940000  1
  H  H39  1  0.30080000  0.03680000  0.20060000  1
  H  H40  1  0.26900000  0.77540000  0.76990000  1
  H  H41  1  0.26900000  0.27540000  0.73010000  1
  H  H42  1  0.22030000  0.68720000  0.41100000  1
  H  H43  1  0.22030000  0.18720000  0.08900000  1
  H  H44  1  0.20750000  0.17650000  0.81080000  1
  H  H45  1  0.20750000  0.67650000  0.68920000  1
  H  H46  1  0.19640000  0.80040000  0.34120000  1
  H  H47  1  0.19640000  0.30040000  0.15880000  1
  H  H48  1  0.19090000  0.91050000  0.26920000  1
  H  H49  1  0.19090000  0.41050000  0.23080000  1
  H  H50  1  0.17930000  0.50390000  0.82060000  1
  H  H51  1  0.17930000  0.00390000  0.67940000  1
  H  H52  1  0.15420000  0.61190000  0.89370000  1
  H  H53  1  0.15420000  0.11190000  0.60630000  1
  H  H54  1  0.14680000  0.72140000  0.97050000  1
  H  H55  1  0.14680000  0.22140000  0.52950000  1
  C  C56  1  0.99860000  0.89700000  0.80573000  1
  C  C57  1  0.99860000  0.39700000  0.69427000  1
  C  C58  1  0.97440000  0.83570000  0.75275000  1
  C  C59  1  0.97440000  0.33570000  0.74725000  1
  C  C60  1  0.90340000  0.28360000  0.30530000  1
  C  C61  1  0.90340000  0.78360000  0.19470000  1
  C  C62  1  0.86530000  0.22470000  0.25700000  1
  C  C63  1  0.86530000  0.72470000  0.24300000  1
  C  C64  1  0.83930000  0.95550000  0.82214000  1
  C  C65  1  0.83930000  0.45550000  0.67786000  1
  C  C66  1  0.82760000  0.59060000  0.35250000  1
  C  C67  1  0.82760000  0.09060000  0.14750000  1
  C  C68  1  0.78470000  0.33150000  0.79020000  1
  C  C69  1  0.78470000  0.83150000  0.70980000  1
  C  C70  1  0.76080000  0.27050000  0.83740000  1
  C  C71  1  0.76080000  0.77050000  0.66260000  1
  C  C72  1  0.71180000  0.74470000  0.46573000  1
  C  C73  1  0.71180000  0.24470000  0.03427000  1
  C  C74  1  0.70820000  0.89120000  0.36870000  1
  C  C75  1  0.70820000  0.39120000  0.13130000  1
  C  C76  1  0.69140000  0.95610000  0.32490000  1
  C  C77  1  0.69140000  0.45610000  0.17510000  1
  C  C78  1  0.67420000  0.59370000  0.79520000  1
  C  C79  1  0.67420000  0.09370000  0.70480000  1
  C  C80  1  0.67210000  0.66030000  0.83790000  1
  C  C81  1  0.67210000  0.16030000  0.66210000  1
  C  C82  1  0.63440000  0.80550000  0.93290000  1
  C  C83  1  0.63440000  0.30550000  0.56710000  1
  C  C84  1  0.53350000  0.76080000  0.42220000  1
  C  C85  1  0.53350000  0.26080000  0.07780000  1
  C  C86  1  0.52400000  0.83040000  0.37611000  1
  C  C87  1  0.52400000  0.33040000  0.12389000  1
  C  C88  1  0.47600000  0.66960000  0.87611000  1
  C  C89  1  0.47600000  0.16960000  0.62389000  1
  C  C90  1  0.46650000  0.73920000  0.92220000  1
  C  C91  1  0.46650000  0.23920000  0.57780000  1
  C  C92  1  0.36560000  0.69450000  0.43290000  1
  C  C93  1  0.36560000  0.19450000  0.06710000  1
  C  C94  1  0.32790000  0.83970000  0.33790000  1
  C  C95  1  0.32790000  0.33970000  0.16210000  1
  C  C96  1  0.32580000  0.90630000  0.29520000  1
  C  C97  1  0.32580000  0.40630000  0.20480000  1
  C  C98  1  0.30860000  0.54390000  0.82490000  1
  C  C99  1  0.30860000  0.04390000  0.67510000  1
  C  C100  1  0.29180000  0.60880000  0.86870000  1
  C  C101  1  0.29180000  0.10880000  0.63130000  1
  C  C102  1  0.28820000  0.75530000  0.96573000  1
  C  C103  1  0.28820000  0.25530000  0.53427000  1
  C  C104  1  0.23920000  0.22950000  0.33740000  1
  C  C105  1  0.23920000  0.72950000  0.16260000  1
  C  C106  1  0.21530000  0.16850000  0.29020000  1
  C  C107  1  0.21530000  0.66850000  0.20980000  1
  C  C108  1  0.17240000  0.90940000  0.85250000  1
  C  C109  1  0.17240000  0.40940000  0.64750000  1
  C  C110  1  0.16070000  0.54450000  0.32214000  1
  C  C111  1  0.16070000  0.04450000  0.17786000  1
  C  C112  1  0.13470000  0.27530000  0.75700000  1
  C  C113  1  0.13470000  0.77530000  0.74300000  1
  C  C114  1  0.09660000  0.21640000  0.80530000  1
  C  C115  1  0.09660000  0.71640000  0.69470000  1
  C  C116  1  0.02560000  0.66430000  0.25275000  1
  C  C117  1  0.02560000  0.16430000  0.24725000  1
  C  C118  1  0.00140000  0.60300000  0.30573000  1
  C  C119  1  0.00140000  0.10300000  0.19427000  1
  N  N120  1  0.91680000  0.99828000  0.87468000  1
  N  N121  1  0.91680000  0.49828000  0.62532000  1
  N  N122  1  0.91100000  0.21202000  0.84535000  1
  N  N123  1  0.91100000  0.71202000  0.65465000  1
  N  N124  1  0.87580000  0.53054000  0.39423000  1
  N  N125  1  0.87580000  0.03054000  0.10577000  1
  N  N126  1  0.65520000  0.67474000  0.49979000  1
  N  N127  1  0.65520000  0.17474000  0.00021000  1
  N  N128  1  0.56110000  0.85707000  0.97851000  1
  N  N129  1  0.56110000  0.35707000  0.52149000  1
  N  N130  1  0.50200000  0.96570000  0.28798000  1
  N  N131  1  0.50200000  0.46570000  0.21202000  1
  N  N132  1  0.49800000  0.53430000  0.78798000  1
  N  N133  1  0.49800000  0.03430000  0.71202000  1
  N  N134  1  0.43890000  0.64293000  0.47851000  1
  N  N135  1  0.43890000  0.14293000  0.02149000  1
  N  N136  1  0.34480000  0.82526000  0.99979000  1
  N  N137  1  0.34480000  0.32526000  0.50021000  1
  N  N138  1  0.12420000  0.96946000  0.89423000  1
  N  N139  1  0.12420000  0.46946000  0.60577000  1
  N  N140  1  0.08900000  0.28798000  0.34535000  1
  N  N141  1  0.08900000  0.78798000  0.15465000  1
  N  N142  1  0.08320000  0.50172000  0.37468000  1
  N  N143  1  0.08320000  0.00172000  0.12532000  1
