# generated using pymatgen
data_YC12(ClO2)4
_symmetry_space_group_name_H-M   'P 1'
_cell_length_a   11.57800000
_cell_length_b   11.57800000
_cell_length_c   15.10632446
_cell_angle_alpha   112.53296151
_cell_angle_beta   112.53322361
_cell_angle_gamma   90.00000000
_symmetry_Int_Tables_number   1
_chemical_formula_structural   YC12(ClO2)4
_chemical_formula_sum   'Y2 C24 Cl8 O16'
_cell_volume   1701.83430096
_cell_formula_units_Z   2
loop_
 _symmetry_equiv_pos_site_id
 _symmetry_equiv_pos_as_xyz
  1  'x, y, z'
loop_
 _atom_site_type_symbol
 _atom_site_label
 _atom_site_symmetry_multiplicity
 _atom_site_fract_x
 _atom_site_fract_y
 _atom_site_fract_z
 _atom_site_occupancy
  Y  Y0  1  0.12500000  0.37500000  0.25000000  1
  Y  Y1  1  0.87500000  0.62500000  0.75000000  1
  C  C2  1  0.07500000  0.02880000  0.95200000  1
  C  C3  1  0.99870000  0.08550000  0.09700000  1
  C  C4  1  0.08030000  0.12010000  0.04720000  1
  C  C5  1  0.52880000  0.37700000  0.45200000  1
  C  C6  1  0.41450000  0.40170000  0.40300000  1
  C  C7  1  0.07290000  0.41970000  0.45280000  1
  C  C8  1  0.87700000  0.42320000  0.95200000  1
  C  C9  1  0.07680000  0.42500000  0.54800000  1
  C  C10  1  0.96690000  0.42710000  0.04720000  1
  C  C11  1  0.62010000  0.46690000  0.54720000  1
  C  C12  1  0.90170000  0.48850000  0.90300000  1
  C  C13  1  0.01150000  0.49870000  0.59700000  1
  C  C14  1  0.98850000  0.50130000  0.40300000  1
  C  C15  1  0.09830000  0.51150000  0.09700000  1
  C  C16  1  0.37990000  0.53310000  0.45280000  1
  C  C17  1  0.03310000  0.57290000  0.95280000  1
  C  C18  1  0.92320000  0.57500000  0.45200000  1
  C  C19  1  0.12300000  0.57680000  0.04800000  1
  C  C20  1  0.92710000  0.58030000  0.54720000  1
  C  C21  1  0.58550000  0.59830000  0.59700000  1
  C  C22  1  0.47120000  0.62300000  0.54800000  1
  C  C23  1  0.91970000  0.87990000  0.95280000  1
  C  C24  1  0.00130000  0.91450000  0.90300000  1
  C  C25  1  0.92500000  0.97120000  0.04800000  1
  Cl  Cl26  1  0.16444000  0.06824000  0.89508000  1
  Cl  Cl27  1  0.56824000  0.23064000  0.39508000  1
  Cl  Cl28  1  0.73064000  0.32684000  0.89508000  1
  Cl  Cl29  1  0.17316000  0.33556000  0.60492000  1
  Cl  Cl30  1  0.82684000  0.66444000  0.39508000  1
  Cl  Cl31  1  0.26936000  0.67316000  0.10492000  1
  Cl  Cl32  1  0.43176000  0.76936000  0.60492000  1
  Cl  Cl33  1  0.83556000  0.93176000  0.10492000  1
  O  O34  1  0.01300000  0.17440000  0.18520000  1
  O  O35  1  0.14880000  0.22700000  0.09820000  1
  O  O36  1  0.32560000  0.32780000  0.31480000  1
  O  O37  1  0.12880000  0.35120000  0.40180000  1
  O  O38  1  0.94940000  0.37120000  0.09820000  1
  O  O39  1  0.72700000  0.44940000  0.59820000  1
  O  O40  1  0.98920000  0.48700000  0.31480000  1
  O  O41  1  0.82780000  0.48920000  0.81480000  1
  O  O42  1  0.17220000  0.51080000  0.18520000  1
  O  O43  1  0.01080000  0.51300000  0.68520000  1
  O  O44  1  0.27300000  0.55060000  0.40180000  1
  O  O45  1  0.05060000  0.62880000  0.90180000  1
  O  O46  1  0.87120000  0.64880000  0.59820000  1
  O  O47  1  0.67440000  0.67220000  0.68520000  1
  O  O48  1  0.85120000  0.77300000  0.90180000  1
  O  O49  1  0.98700000  0.82560000  0.81480000  1
