# generated using pymatgen
data_Mg5H6(C10O9)2
_symmetry_space_group_name_H-M   'P 1'
_cell_length_a   7.37420000
_cell_length_b   11.40110000
_cell_length_c   11.67060000
_cell_angle_alpha   89.66600000
_cell_angle_beta   76.81300000
_cell_angle_gamma   74.97100000
_symmetry_Int_Tables_number   1
_chemical_formula_structural   Mg5H6(C10O9)2
_chemical_formula_sum   'Mg5 H6 C20 O18'
_cell_volume   921.15864761
_cell_formula_units_Z   1
loop_
 _symmetry_equiv_pos_site_id
 _symmetry_equiv_pos_as_xyz
  1  'x, y, z'
loop_
 _atom_site_type_symbol
 _atom_site_label
 _atom_site_symmetry_multiplicity
 _atom_site_fract_x
 _atom_site_fract_y
 _atom_site_fract_z
 _atom_site_occupancy
  Mg  Mg0  1  0.00000000  0.00000000  0.50000000  1
  Mg  Mg1  1  0.31249000  0.86803000  0.63601000  1
  Mg  Mg2  1  0.45878000  0.85303000  0.32564000  1
  Mg  Mg3  1  0.54122000  0.14697000  0.67436000  1
  Mg  Mg4  1  0.68751000  0.13197000  0.36399000  1
  H  H5  1  0.27490000  0.04190000  0.03030000  1
  H  H6  1  0.29930000  0.50230000  0.52680000  1
  H  H7  1  0.34010000  0.02370000  0.47920000  1
  H  H8  1  0.65990000  0.97630000  0.52080000  1
  H  H9  1  0.70070000  0.49770000  0.47320000  1
  H  H10  1  0.72510000  0.95810000  0.96970000  1
  C  C11  1  0.03870000  0.99074000  0.11257000  1
  C  C12  1  0.04210000  0.61106000  0.51471000  1
  C  C13  1  0.09280000  0.72899000  0.52881000  1
  C  C14  1  0.10060000  0.97862000  0.22770000  1
  C  C15  1  0.12880000  0.03399000  0.90564000  1
  C  C16  1  0.13950000  0.39039000  0.50154000  1
  C  C17  1  0.16400000  0.02480000  0.01798000  1
  C  C18  1  0.17860000  0.50135000  0.51597000  1
  C  C19  1  0.27840000  0.07364000  0.81431000  1
  C  C20  1  0.29840000  0.27715000  0.50623000  1
  C  C21  1  0.70160000  0.72285000  0.49377000  1
  C  C22  1  0.72160000  0.92636000  0.18569000  1
  C  C23  1  0.82140000  0.49865000  0.48403000  1
  C  C24  1  0.83600000  0.97520000  0.98202000  1
  C  C25  1  0.86050000  0.60961000  0.49846000  1
  C  C26  1  0.87120000  0.96601000  0.09436000  1
  C  C27  1  0.89940000  0.02138000  0.77230000  1
  C  C28  1  0.90720000  0.27101000  0.47119000  1
  C  C29  1  0.95790000  0.38894000  0.48529000  1
  C  C30  1  0.96130000  0.00926000  0.88743000  1
  O  O31  1  0.00250000  0.17899000  0.51094000  1
  O  O32  1  0.02202000  0.97838000  0.67812000  1
  O  O33  1  0.22600000  0.72651000  0.58020000  1
  O  O34  1  0.27420000  0.92782000  0.22082000  1
  O  O35  1  0.29893000  0.94891000  0.47619000  1
  O  O36  1  0.32210000  0.16767000  0.83765000  1
  O  O37  1  0.32640000  0.25246000  0.60626000  1
  O  O38  1  0.36635000  0.00991000  0.71957000  1
  O  O39  1  0.39710000  0.22060000  0.41132000  1
  O  O40  1  0.60290000  0.77940000  0.58868000  1
  O  O41  1  0.63365000  0.99009000  0.28043000  1
  O  O42  1  0.67360000  0.74754000  0.39374000  1
  O  O43  1  0.67790000  0.83233000  0.16235000  1
  O  O44  1  0.70107000  0.05109000  0.52381000  1
  O  O45  1  0.72580000  0.07218000  0.77918000  1
  O  O46  1  0.77400000  0.27349000  0.41980000  1
  O  O47  1  0.97798000  0.02162000  0.32188000  1
  O  O48  1  0.99750000  0.82101000  0.48906000  1
