# generated using pymatgen
data_CoH10C14NO4
_symmetry_space_group_name_H-M   'P 1'
_cell_length_a   9.43790000
_cell_length_b   21.56450000
_cell_length_c   21.56450000
_cell_angle_alpha   120.00000000
_cell_angle_beta   90.00000000
_cell_angle_gamma   90.00000000
_symmetry_Int_Tables_number   1
_chemical_formula_structural   CoH10C14NO4
_chemical_formula_sum   'Co6 H60 C84 N6 O24'
_cell_volume   3800.88551862
_cell_formula_units_Z   6
loop_
 _symmetry_equiv_pos_site_id
 _symmetry_equiv_pos_as_xyz
  1  'x, y, z'
loop_
 _atom_site_type_symbol
 _atom_site_label
 _atom_site_symmetry_multiplicity
 _atom_site_fract_x
 _atom_site_fract_y
 _atom_site_fract_z
 _atom_site_occupancy
  Co  Co0  1  0.64145000  1.00000000  0.50000000  1
  Co  Co1  1  0.35855000  1.00000000  0.50000000  1
  Co  Co2  1  0.64145000  0.50000000  0.50000000  1
  Co  Co3  1  0.35855000  0.50000000  0.50000000  1
  Co  Co4  1  0.64145000  0.50000000  0.00000000  1
  Co  Co5  1  0.35855000  0.50000000  0.00000000  1
  H  H6  1  0.90300000  1.00000000  0.41800000  1
  H  H7  1  0.09700000  1.00000000  0.41800000  1
  H  H8  1  0.90300000  1.00000000  0.58200000  1
  H  H9  1  0.09700000  1.00000000  0.58200000  1
  H  H10  1  0.89900000  0.91500000  0.41670000  1
  H  H11  1  0.10100000  0.91500000  0.41670000  1
  H  H12  1  0.89900000  0.91500000  0.49830000  1
  H  H13  1  0.10100000  0.91500000  0.49830000  1
  H  H14  1  0.71360000  0.82360000  0.28350000  1
  H  H15  1  0.28640000  0.82360000  0.28350000  1
  H  H16  1  0.71360000  0.82360000  0.54010000  1
  H  H17  1  0.28640000  0.82360000  0.54010000  1
  H  H18  1  0.71360000  0.71650000  0.17640000  1
  H  H19  1  0.28640000  0.71650000  0.17640000  1
  H  H20  1  0.71360000  0.71650000  0.54010000  1
  H  H21  1  0.28640000  0.71650000  0.54010000  1
  H  H22  1  0.89900000  0.58330000  0.08500000  1
  H  H23  1  0.10100000  0.58330000  0.08500000  1
  H  H24  1  0.89900000  0.58330000  0.49830000  1
  H  H25  1  0.10100000  0.58330000  0.49830000  1
  H  H26  1  0.90300000  0.58200000  0.58200000  1
  H  H27  1  0.09700000  0.58200000  0.58200000  1
  H  H28  1  0.90300000  0.58200000  0.00000000  1
  H  H29  1  0.09700000  0.58200000  0.00000000  1
  H  H30  1  0.71360000  0.54010000  0.71650000  1
  H  H31  1  0.28640000  0.54010000  0.71650000  1
  H  H32  1  0.71360000  0.54010000  0.82360000  1
  H  H33  1  0.28640000  0.54010000  0.82360000  1
  H  H34  1  0.89900000  0.50170000  0.08500000  1
  H  H35  1  0.10100000  0.50170000  0.08500000  1
  H  H36  1  0.89900000  0.50170000  0.41670000  1
  H  H37  1  0.10100000  0.50170000  0.41670000  1
  H  H38  1  0.89900000  0.49830000  0.58330000  1
  H  H39  1  0.10100000  0.49830000  0.58330000  1
  H  H40  1  0.89900000  0.49830000  0.91500000  1
  H  H41  1  0.10100000  0.49830000  0.91500000  1
  H  H42  1  0.71360000  0.45990000  0.17640000  1
  H  H43  1  0.28640000  0.45990000  0.17640000  1
  H  H44  1  0.71360000  0.45990000  0.28350000  1
  H  H45  1  0.28640000  0.45990000  0.28350000  1
  H  H46  1  0.90300000  0.41800000  0.41800000  1
  H  H47  1  0.09700000  0.41800000  0.41800000  1
  H  H48  1  0.90300000  0.41800000  0.00000000  1
  H  H49  1  0.09700000  0.41800000  0.00000000  1
  H  H50  1  0.89900000  0.41670000  0.50170000  1
  H  H51  1  0.10100000  0.41670000  0.50170000  1
  H  H52  1  0.89900000  0.41670000  0.91500000  1
  H  H53  1  0.10100000  0.41670000  0.91500000  1
  H  H54  1  0.71360000  0.28350000  0.45990000  1
  H  H55  1  0.28640000  0.28350000  0.45990000  1
  H  H56  1  0.71360000  0.28350000  0.82360000  1
  H  H57  1  0.28640000  0.28350000  0.82360000  1
  H  H58  1  0.71360000  0.17640000  0.45990000  1
  H  H59  1  0.28640000  0.17640000  0.45990000  1
  H  H60  1  0.71360000  0.17640000  0.71650000  1
  H  H61  1  0.28640000  0.17640000  0.71650000  1
  H  H62  1  0.89900000  0.08500000  0.50170000  1
  H  H63  1  0.10100000  0.08500000  0.50170000  1
  H  H64  1  0.89900000  0.08500000  0.58330000  1
  H  H65  1  0.10100000  0.08500000  0.58330000  1
  C  C66  1  0.91880000  0.96290000  0.42600000  1
  C  C67  1  0.08120000  0.96290000  0.42600000  1
  C  C68  1  0.91880000  0.96290000  0.53690000  1
  C  C69  1  0.08120000  0.96290000  0.53690000  1
  C  C70  1  0.91910000  0.92390000  0.46195000  1
  C  C71  1  0.08090000  0.92390000  0.46195000  1
  C  C72  1  0.50000000  0.89840000  0.36740000  1
  C  C73  1  0.50000000  0.89840000  0.53100000  1
  C  C74  1  0.50000000  0.83410000  0.29490000  1
  C  C75  1  0.50000000  0.83410000  0.53920000  1
  C  C76  1  0.62610000  0.80164000  0.26194000  1
  C  C77  1  0.37390000  0.80164000  0.26194000  1
  C  C78  1  0.62610000  0.80164000  0.53970000  1
  C  C79  1  0.37390000  0.80164000  0.53970000  1
  C  C80  1  0.62610000  0.73806000  0.19836000  1
  C  C81  1  0.37390000  0.73806000  0.19836000  1
  C  C82  1  0.62610000  0.73806000  0.53970000  1
  C  C83  1  0.37390000  0.73806000  0.53970000  1
  C  C84  1  0.50000000  0.70510000  0.16590000  1
  C  C85  1  0.50000000  0.70510000  0.53920000  1
  C  C86  1  0.50000000  0.63260000  0.10160000  1
  C  C87  1  0.50000000  0.63260000  0.53100000  1
  C  C88  1  0.91880000  0.57400000  0.03710000  1
  C  C89  1  0.08120000  0.57400000  0.03710000  1
  C  C90  1  0.91880000  0.57400000  0.53690000  1
  C  C91  1  0.08120000  0.57400000  0.53690000  1
  C  C92  1  0.62610000  0.53970000  0.73806000  1
  C  C93  1  0.37390000  0.53970000  0.73806000  1
  C  C94  1  0.62610000  0.53970000  0.80164000  1
  C  C95  1  0.37390000  0.53970000  0.80164000  1
  C  C96  1  0.50000000  0.53920000  0.70510000  1
  C  C97  1  0.50000000  0.53920000  0.83410000  1
  C  C98  1  0.91910000  0.53805000  0.07610000  1
  C  C99  1  0.08090000  0.53805000  0.07610000  1
  C  C100  1  0.91910000  0.53805000  0.46195000  1
  C  C101  1  0.08090000  0.53805000  0.46195000  1
  C  C102  1  0.91880000  0.53690000  0.57400000  1
  C  C103  1  0.08120000  0.53690000  0.57400000  1
  C  C104  1  0.91880000  0.53690000  0.96290000  1
  C  C105  1  0.08120000  0.53690000  0.96290000  1
  C  C106  1  0.50000000  0.53100000  0.63260000  1
  C  C107  1  0.50000000  0.53100000  0.89840000  1
  C  C108  1  0.50000000  0.46900000  0.10160000  1
  C  C109  1  0.50000000  0.46900000  0.36740000  1
  C  C110  1  0.91880000  0.46310000  0.03710000  1
  C  C111  1  0.08120000  0.46310000  0.03710000  1
  C  C112  1  0.91880000  0.46310000  0.42600000  1
  C  C113  1  0.08120000  0.46310000  0.42600000  1
  C  C114  1  0.91910000  0.46195000  0.53805000  1
  C  C115  1  0.08090000  0.46195000  0.53805000  1
  C  C116  1  0.91910000  0.46195000  0.92390000  1
  C  C117  1  0.08090000  0.46195000  0.92390000  1
  C  C118  1  0.50000000  0.46080000  0.16590000  1
  C  C119  1  0.50000000  0.46080000  0.29490000  1
  C  C120  1  0.62610000  0.46030000  0.19836000  1
  C  C121  1  0.37390000  0.46030000  0.19836000  1
  C  C122  1  0.62610000  0.46030000  0.26194000  1
  C  C123  1  0.37390000  0.46030000  0.26194000  1
  C  C124  1  0.91880000  0.42600000  0.46310000  1
  C  C125  1  0.08120000  0.42600000  0.46310000  1
  C  C126  1  0.91880000  0.42600000  0.96290000  1
  C  C127  1  0.08120000  0.42600000  0.96290000  1
  C  C128  1  0.50000000  0.36740000  0.46900000  1
  C  C129  1  0.50000000  0.36740000  0.89840000  1
  C  C130  1  0.50000000  0.29490000  0.46080000  1
  C  C131  1  0.50000000  0.29490000  0.83410000  1
  C  C132  1  0.62610000  0.26194000  0.46030000  1
  C  C133  1  0.37390000  0.26194000  0.46030000  1
  C  C134  1  0.62610000  0.26194000  0.80164000  1
  C  C135  1  0.37390000  0.26194000  0.80164000  1
  C  C136  1  0.62610000  0.19836000  0.46030000  1
  C  C137  1  0.37390000  0.19836000  0.46030000  1
  C  C138  1  0.62610000  0.19836000  0.73806000  1
  C  C139  1  0.37390000  0.19836000  0.73806000  1
  C  C140  1  0.50000000  0.16590000  0.46080000  1
  C  C141  1  0.50000000  0.16590000  0.70510000  1
  C  C142  1  0.50000000  0.10160000  0.46900000  1
  C  C143  1  0.50000000  0.10160000  0.63260000  1
  C  C144  1  0.91910000  0.07610000  0.53805000  1
  C  C145  1  0.08090000  0.07610000  0.53805000  1
  C  C146  1  0.91880000  0.03710000  0.46310000  1
  C  C147  1  0.08120000  0.03710000  0.46310000  1
  C  C148  1  0.91880000  0.03710000  0.57400000  1
  C  C149  1  0.08120000  0.03710000  0.57400000  1
  N  N150  1  0.86280000  1.00000000  0.50000000  1
  N  N151  1  0.13720000  1.00000000  0.50000000  1
  N  N152  1  0.86280000  0.50000000  0.50000000  1
  N  N153  1  0.13720000  0.50000000  0.50000000  1
  N  N154  1  0.86280000  0.50000000  0.00000000  1
  N  N155  1  0.13720000  0.50000000  0.00000000  1
  O  O156  1  0.61820000  0.92352000  0.39657000  1
  O  O157  1  0.38180000  0.92352000  0.39657000  1
  O  O158  1  0.61820000  0.92352000  0.52695000  1
  O  O159  1  0.38180000  0.92352000  0.52695000  1
  O  O160  1  0.61820000  0.60343000  0.07648000  1
  O  O161  1  0.38180000  0.60343000  0.07648000  1
  O  O162  1  0.61820000  0.60343000  0.52695000  1
  O  O163  1  0.38180000  0.60343000  0.52695000  1
  O  O164  1  0.61820000  0.52695000  0.60343000  1
  O  O165  1  0.38180000  0.52695000  0.60343000  1
  O  O166  1  0.61820000  0.52695000  0.92352000  1
  O  O167  1  0.38180000  0.52695000  0.92352000  1
  O  O168  1  0.61820000  0.47305000  0.07648000  1
  O  O169  1  0.38180000  0.47305000  0.07648000  1
  O  O170  1  0.61820000  0.47305000  0.39657000  1
  O  O171  1  0.38180000  0.47305000  0.39657000  1
  O  O172  1  0.61820000  0.39657000  0.47305000  1
  O  O173  1  0.38180000  0.39657000  0.47305000  1
  O  O174  1  0.61820000  0.39657000  0.92352000  1
  O  O175  1  0.38180000  0.39657000  0.92352000  1
  O  O176  1  0.61820000  0.07648000  0.47305000  1
  O  O177  1  0.38180000  0.07648000  0.47305000  1
  O  O178  1  0.61820000  0.07648000  0.60343000  1
  O  O179  1  0.38180000  0.07648000  0.60343000  1
