# generated using pymatgen
data_Fe2HC4Cl2O9
_symmetry_space_group_name_H-M   'P 1'
_cell_length_a   8.81036874
_cell_length_b   8.81036874
_cell_length_c   12.31000000
_cell_angle_alpha   99.97877317
_cell_angle_beta   99.97877317
_cell_angle_gamma   113.63083461
_symmetry_Int_Tables_number   1
_chemical_formula_structural   Fe2HC4Cl2O9
_chemical_formula_sum   'Fe4 H2 C8 Cl4 O18'
_cell_volume   830.38014994
_cell_formula_units_Z   2
loop_
 _symmetry_equiv_pos_site_id
 _symmetry_equiv_pos_as_xyz
  1  'x, y, z'
loop_
 _atom_site_type_symbol
 _atom_site_label
 _atom_site_symmetry_multiplicity
 _atom_site_fract_x
 _atom_site_fract_y
 _atom_site_fract_z
 _atom_site_occupancy
  C  C0  1  0.72510000  0.09350000  0.49560000  1
  C  C1  1  0.09350000  0.72510000  0.99560000  1
  C  C2  1  0.64231667  0.97568333  0.56880000  1
  C  C3  1  0.97568333  0.64231667  0.06880000  1
  C  C4  1  0.25170000  0.12570000  0.54730000  1
  C  C5  1  0.12570000  0.25170000  0.04730000  1
  C  C6  1  0.10870000  0.94470000  0.49590000  1
  C  C7  1  0.94470000  0.10870000  0.99590000  1
  Cl  Cl8  1  0.08536000  0.98344000  0.79160000  1
  Cl  Cl9  1  0.98344000  0.08536000  0.29160000  1
  Cl  Cl10  1  0.32042000  0.69018000  0.28370000  1
  Cl  Cl11  1  0.69018000  0.32042000  0.78370000  1
  Fe  Fe12  1  0.36941000  0.94879000  0.39276000  1
  Fe  Fe13  1  0.94879000  0.36941000  0.89276000  1
  Fe  Fe14  1  0.10781000  0.00187000  0.16291000  1
  Fe  Fe15  1  0.00187000  0.10781000  0.66291000  1
  H  H16  1  0.41690000  0.11550000  0.25190000  1
  H  H17  1  0.11550000  0.41690000  0.75190000  1
  O  O18  1  0.84380000  0.13480000  0.92300000  1
  O  O19  1  0.13480000  0.84380000  0.42300000  1
  O  O20  1  0.90690000  0.97510000  0.03030000  1
  O  O21  1  0.97510000  0.90690000  0.53030000  1
  O  O22  1  0.62580000  0.09420000  0.41080000  1
  O  O23  1  0.09420000  0.62580000  0.91080000  1
  O  O24  1  0.74460000  0.96760000  0.65050000  1
  O  O25  1  0.96760000  0.74460000  0.15050000  1
  O  O26  1  0.38310000  0.15870000  0.51150000  1
  O  O27  1  0.15870000  0.38310000  0.01150000  1
  O  O28  1  0.22910000  0.22510000  0.62130000  1
  O  O29  1  0.22510000  0.22910000  0.12130000  1
  O  O30  1  0.48230000  0.89810000  0.54110000  1
  O  O31  1  0.89810000  0.48230000  0.04110000  1
  O  O32  1  0.31880000  0.03820000  0.26630000  1
  O  O33  1  0.03820000  0.31880000  0.76630000  1
  O  O34  1  0.17970000  0.88590000  0.02800000  1
  O  O35  1  0.88590000  0.17970000  0.52800000  1
