# generated using pymatgen
data_BaCu6H42C36(N3O10)2
_symmetry_space_group_name_H-M   'P 1'
_cell_length_a   13.85094035
_cell_length_b   13.85094035
_cell_length_c   13.85094035
_cell_angle_alpha   62.68834117
_cell_angle_beta   62.68834117
_cell_angle_gamma   62.68834117
_symmetry_Int_Tables_number   1
_chemical_formula_structural   BaCu6H42C36(N3O10)2
_chemical_formula_sum   'Ba1 Cu6 H42 C36 N6 O20'
_cell_volume   1991.39349798
_cell_formula_units_Z   1
loop_
 _symmetry_equiv_pos_site_id
 _symmetry_equiv_pos_as_xyz
  1  'x, y, z'
loop_
 _atom_site_type_symbol
 _atom_site_label
 _atom_site_symmetry_multiplicity
 _atom_site_fract_x
 _atom_site_fract_y
 _atom_site_fract_z
 _atom_site_occupancy
  Ba  Ba0  1  0.93687000  0.93687000  0.93687000  1
  C  C1  1  0.23140000  0.38060000  0.05680000  1
  C  C2  1  0.35250000  0.82490000  0.85000000  1
  C  C3  1  0.01900000  0.36130000  0.64050000  1
  C  C4  1  0.36130000  0.64050000  0.01900000  1
  C  C5  1  0.69190000  0.88970000  0.40770000  1
  C  C6  1  0.45020000  0.88830000  0.91330000  1
  C  C7  1  0.23340000  0.51190000  0.85600000  1
  C  C8  1  0.40770000  0.69190000  0.88970000  1
  C  C9  1  0.65200000  0.00330000  0.01380000  1
  C  C10  1  0.98350000  0.18260000  0.46430000  1
  C  C11  1  0.00330000  0.01380000  0.65200000  1
  C  C12  1  0.01380000  0.65200000  0.00330000  1
  C  C13  1  0.88830000  0.91330000  0.45020000  1
  C  C14  1  0.82490000  0.85000000  0.35250000  1
  C  C15  1  0.02120000  0.04790000  0.52230000  1
  C  C16  1  0.38060000  0.05680000  0.23140000  1
  C  C17  1  0.91330000  0.45020000  0.88830000  1
  C  C18  1  0.05680000  0.23140000  0.38060000  1
  C  C19  1  0.83730000  0.52630000  0.63530000  1
  C  C20  1  0.96150000  0.98450000  0.42280000  1
  C  C21  1  0.85000000  0.35250000  0.82490000  1
  C  C22  1  0.04790000  0.52230000  0.02120000  1
  C  C23  1  0.52630000  0.63530000  0.83730000  1
  C  C24  1  0.98450000  0.42280000  0.96150000  1
  C  C25  1  0.85960000  0.86990000  0.22230000  1
  C  C26  1  0.86990000  0.22230000  0.85960000  1
  C  C27  1  0.88970000  0.40770000  0.69190000  1
  C  C28  1  0.22230000  0.85960000  0.86990000  1
  C  C29  1  0.46430000  0.98350000  0.18260000  1
  C  C30  1  0.42280000  0.96150000  0.98450000  1
  C  C31  1  0.64050000  0.01900000  0.36130000  1
  C  C32  1  0.63530000  0.83730000  0.52630000  1
  C  C33  1  0.18260000  0.46430000  0.98350000  1
  C  C34  1  0.51190000  0.85600000  0.23340000  1
  C  C35  1  0.85600000  0.23340000  0.51190000  1
  C  C36  1  0.52230000  0.02120000  0.04790000  1
  Cu  Cu37  1  0.87910000  0.89898000  0.65768000  1
  Cu  Cu38  1  0.89898000  0.65768000  0.87910000  1
  Cu  Cu39  1  0.21621000  0.97577000  0.99346000  1
  Cu  Cu40  1  0.65768000  0.87910000  0.89898000  1
  Cu  Cu41  1  0.97577000  0.99346000  0.21621000  1
  Cu  Cu42  1  0.99346000  0.21621000  0.97577000  1
  H  H43  1  0.20230000  0.31670000  0.08620000  1
  H  H44  1  0.21580000  0.59470000  0.83430000  1
  H  H45  1  0.65460000  0.75480000  0.53970000  1
  H  H46  1  0.68130000  0.04570000  0.27940000  1
  H  H47  1  0.05610000  0.40220000  0.64770000  1
  H  H48  1  0.20080000  0.49650000  0.81700000  1
  H  H49  1  0.40220000  0.64770000  0.05610000  1
  H  H50  1  0.04570000  0.27940000  0.68130000  1
  H  H51  1  0.59470000  0.83430000  0.21580000  1
  H  H52  1  0.03820000  0.37240000  0.55950000  1
  H  H53  1  0.37240000  0.55950000  0.03820000  1
  H  H54  1  0.39130000  0.85520000  0.76620000  1
  H  H55  1  0.31410000  0.35640000  0.01960000  1
  H  H56  1  0.76620000  0.39130000  0.85520000  1
  H  H57  1  0.75480000  0.53970000  0.65460000  1
  H  H58  1  0.31650000  0.47550000  0.83360000  1
  H  H59  1  0.31670000  0.08620000  0.20230000  1
  H  H60  1  0.01960000  0.31410000  0.35640000  1
  H  H61  1  0.35640000  0.01960000  0.31410000  1
  H  H62  1  0.01660000  0.48350000  0.10480000  1
  H  H63  1  0.84470000  0.57520000  0.66360000  1
  H  H64  1  0.40580000  0.12020000  0.21390000  1
  H  H65  1  0.85520000  0.76620000  0.39130000  1
  H  H66  1  0.12020000  0.21390000  0.40580000  1
  H  H67  1  0.57520000  0.66360000  0.84470000  1
  H  H68  1  0.87320000  0.54410000  0.55340000  1
  H  H69  1  0.08620000  0.20230000  0.31670000  1
  H  H70  1  0.54410000  0.55340000  0.87320000  1
  H  H71  1  0.53970000  0.65460000  0.75480000  1
  H  H72  1  0.55340000  0.87320000  0.54410000  1
  H  H73  1  0.55950000  0.03820000  0.37240000  1
  H  H74  1  0.10480000  0.01660000  0.48350000  1
  H  H75  1  0.47550000  0.83360000  0.31650000  1
  H  H76  1  0.27940000  0.68130000  0.04570000  1
  H  H77  1  0.64770000  0.05610000  0.40220000  1
  H  H78  1  0.48350000  0.10480000  0.01660000  1
  H  H79  1  0.83430000  0.21580000  0.59470000  1
  H  H80  1  0.83360000  0.31650000  0.47550000  1
  H  H81  1  0.21390000  0.40580000  0.12020000  1
  H  H82  1  0.66360000  0.84470000  0.57520000  1
  H  H83  1  0.81700000  0.20080000  0.49650000  1
  H  H84  1  0.49650000  0.81700000  0.20080000  1
  N  N85  1  0.51490000  0.96210000  0.98930000  1
  N  N86  1  0.96210000  0.98930000  0.51490000  1
  N  N87  1  0.98930000  0.51490000  0.96210000  1
  N  N88  1  0.88610000  0.91050000  0.35950000  1
  N  N89  1  0.91050000  0.35950000  0.88610000  1
  N  N90  1  0.35950000  0.88610000  0.91050000  1
  O  O91  1  0.07543333  0.07543333  0.07543333  1
  O  O92  1  0.79850000  0.79850000  0.79850000  1
  O  O93  1  0.93664000  0.95334000  0.72404000  1
  O  O94  1  0.95334000  0.72404000  0.93664000  1
  O  O95  1  0.68395000  0.04965000  0.04935000  1
  O  O96  1  0.84340000  0.86020000  0.55750000  1
  O  O97  1  0.86020000  0.55750000  0.84340000  1
  O  O98  1  0.04935000  0.68395000  0.04965000  1
  O  O99  1  0.04965000  0.04935000  0.68395000  1
  O  O100  1  0.55750000  0.84340000  0.86020000  1
  O  O101  1  0.14940000  0.92180000  0.93610000  1
  O  O102  1  0.72404000  0.93664000  0.95334000  1
  O  O103  1  0.31710000  0.01450000  0.02940000  1
  O  O104  1  0.82373000  0.19053000  0.82453000  1
  O  O105  1  0.82453000  0.82373000  0.19053000  1
  O  O106  1  0.01450000  0.02940000  0.31710000  1
  O  O107  1  0.02940000  0.31710000  0.01450000  1
  O  O108  1  0.19053000  0.82453000  0.82373000  1
  O  O109  1  0.92180000  0.93610000  0.14940000  1
  O  O110  1  0.93610000  0.14940000  0.92180000  1
