# generated using pymatgen
data_ZnH12C20NO4
_symmetry_space_group_name_H-M   'P 1'
_cell_length_a   17.21900000
_cell_length_b   23.08470848
_cell_length_c   23.08470000
_cell_angle_alpha   102.33457505
_cell_angle_beta   111.89790000
_cell_angle_gamma   111.89785235
_symmetry_Int_Tables_number   1
_chemical_formula_structural   ZnH12C20NO4
_chemical_formula_sum   'Zn4 H48 C80 N4 O16'
_cell_volume   7206.28852958
_cell_formula_units_Z   4
loop_
 _symmetry_equiv_pos_site_id
 _symmetry_equiv_pos_as_xyz
  1  'x, y, z'
loop_
 _atom_site_type_symbol
 _atom_site_label
 _atom_site_symmetry_multiplicity
 _atom_site_fract_x
 _atom_site_fract_y
 _atom_site_fract_z
 _atom_site_occupancy
  Zn  Zn0  1  0.44175000  0.47000000  0.03000000  1
  Zn  Zn1  1  0.55825000  0.97000000  0.53000000  1
  Zn  Zn2  1  0.44175000  0.03000000  0.47000000  1
  Zn  Zn3  1  0.55825000  0.53000000  0.97000000  1
  H  H4  1  0.58210000  0.73040000  0.03340000  1
  H  H5  1  0.31830000  0.46660000  0.76960000  1
  H  H6  1  0.41670000  0.64740000  0.10960000  1
  H  H7  1  0.15970000  0.39040000  0.85260000  1
  H  H8  1  0.58750000  0.83230000  0.07730000  1
  H  H9  1  0.17790000  0.42270000  0.66770000  1
  H  H10  1  0.58810000  0.85690000  0.25470000  1
  H  H11  1  0.97650000  0.24530000  0.64310000  1
  H  H12  1  0.58330000  0.89040000  0.35260000  1
  H  H13  1  0.84030000  0.14740000  0.60960000  1
  H  H14  1  0.41190000  0.74530000  0.14310000  1
  H  H15  1  0.02350000  0.35690000  0.75470000  1
  H  H16  1  0.60590000  0.98870000  0.17450000  1
  H  H17  1  0.94270000  0.32550000  0.51130000  1
  H  H18  1  0.39410000  0.82550000  0.01130000  1
  H  H19  1  0.05730000  0.48870000  0.67450000  1
  H  H20  1  0.31830000  0.76960000  0.46660000  1
  H  H21  1  0.58210000  0.03340000  0.73040000  1
  H  H22  1  0.93400000  0.38770000  0.44430000  1
  H  H23  1  0.60200000  0.05570000  0.11230000  1
  H  H24  1  0.39800000  0.88770000  0.94430000  1
  H  H25  1  0.06600000  0.55570000  0.61230000  1
  H  H26  1  0.17790000  0.66770000  0.42270000  1
  H  H27  1  0.58750000  0.07730000  0.83230000  1
  H  H28  1  0.41250000  0.92270000  0.16770000  1
  H  H29  1  0.82210000  0.33230000  0.57730000  1
  H  H30  1  0.93400000  0.44430000  0.38770000  1
  H  H31  1  0.60200000  0.11230000  0.05570000  1
  H  H32  1  0.39800000  0.94430000  0.88770000  1
  H  H33  1  0.06600000  0.61230000  0.55570000  1
  H  H34  1  0.41790000  0.96660000  0.26960000  1
  H  H35  1  0.68170000  0.23040000  0.53340000  1
  H  H36  1  0.94270000  0.51130000  0.32550000  1
  H  H37  1  0.60590000  0.17450000  0.98870000  1
  H  H38  1  0.05730000  0.67450000  0.48870000  1
  H  H39  1  0.39410000  0.01130000  0.82550000  1
  H  H40  1  0.97643333  0.64310000  0.24530000  1
  H  H41  1  0.58803333  0.25470000  0.85690000  1
  H  H42  1  0.15970000  0.85260000  0.39040000  1
  H  H43  1  0.41670000  0.10960000  0.64740000  1
  H  H44  1  0.02350000  0.75470000  0.35690000  1
  H  H45  1  0.41190000  0.14310000  0.74530000  1
  H  H46  1  0.82210000  0.57730000  0.33230000  1
  H  H47  1  0.41250000  0.16770000  0.92270000  1
  H  H48  1  0.84030000  0.60960000  0.14740000  1
  H  H49  1  0.58330000  0.35260000  0.89040000  1
  H  H50  1  0.68170000  0.53340000  0.23040000  1
  H  H51  1  0.41790000  0.26960000  0.96660000  1
  C  C52  1  0.50082000  0.61275000  0.04329000  1
  C  C53  1  0.34478000  0.45671000  0.88725000  1
  C  C54  1  0.50277000  0.67906000  0.06948000  1
  C  C55  1  0.25423000  0.43052000  0.82094000  1
  C  C56  1  0.55050000  0.73388000  0.05792000  1
  C  C57  1  0.25870000  0.44208000  0.76612000  1
  C  C58  1  0.45065000  0.68441000  0.10209000  1
  C  C59  1  0.16415000  0.39791000  0.81559000  1
  C  C60  1  0.55156000  0.79449000  0.08283000  1
  C  C61  1  0.17424000  0.41717000  0.70551000  1
  C  C62  1  0.44919000  0.74341000  0.12297000  1
  C  C63  1  0.08281000  0.37703000  0.75659000  1
  C  C64  1  0.50037000  0.79991000  0.11563000  1
  C  C65  1  0.08483000  0.38437000  0.70009000  1
  C  C66  1  0.55081000  0.87703000  0.25659000  1
  C  C67  1  0.91719000  0.24341000  0.62297000  1
  C  C68  1  0.54935000  0.89791000  0.31559000  1
  C  C69  1  0.83585000  0.18441000  0.60209000  1
  C  C70  1  0.49963000  0.88437000  0.20009000  1
  C  C71  1  0.91517000  0.29991000  0.61563000  1
  C  C72  1  0.50000000  0.90156000  0.09844000  1
  C  C73  1  0.00000000  0.40156000  0.59844000  1
  C  C74  1  0.56141000  0.96812000  0.12790000  1
  C  C75  1  0.96539000  0.37210000  0.53188000  1
  C  C76  1  0.49723000  0.93052000  0.32094000  1
  C  C77  1  0.74577000  0.17906000  0.56948000  1
  C  C78  1  0.43859000  0.87210000  0.03188000  1
  C  C79  1  0.03461000  0.46812000  0.62790000  1
  C  C80  1  0.96207000  0.40996000  0.49138000  1
  C  C81  1  0.56073000  0.00862000  0.09004000  1
  C  C82  1  0.49918000  0.95671000  0.38725000  1
  C  C83  1  0.65522000  0.11275000  0.54329000  1
  C  C84  1  0.44844000  0.91717000  0.20551000  1
  C  C85  1  0.82576000  0.29449000  0.58283000  1
  C  C86  1  0.43927000  0.90996000  0.99138000  1
  C  C87  1  0.03793000  0.50862000  0.59004000  1
  C  C88  1  0.50000000  0.97907000  0.02093000  1
  C  C89  1  0.00000000  0.47907000  0.52093000  1
  C  C90  1  0.44950000  0.94208000  0.26612000  1
  C  C91  1  0.74130000  0.23388000  0.55792000  1
  C  C92  1  0.25870000  0.76612000  0.44208000  1
  C  C93  1  0.55050000  0.05792000  0.73388000  1
  C  C94  1  0.00000000  0.52093000  0.47907000  1
  C  C95  1  0.50000000  0.02093000  0.97907000  1
  C  C96  1  0.96207000  0.49138000  0.40996000  1
  C  C97  1  0.56073000  0.09004000  0.00862000  1
  C  C98  1  0.17424000  0.70551000  0.41717000  1
  C  C99  1  0.55156000  0.08283000  0.79449000  1
  C  C100  1  0.34478000  0.88725000  0.45671000  1
  C  C101  1  0.50082000  0.04329000  0.61275000  1
  C  C102  1  0.43927000  0.99138000  0.90996000  1
  C  C103  1  0.03793000  0.59004000  0.50862000  1
  C  C104  1  0.96539000  0.53188000  0.37210000  1
  C  C105  1  0.56141000  0.12790000  0.96812000  1
  C  C106  1  0.25423000  0.82094000  0.43052000  1
  C  C107  1  0.50277000  0.06948000  0.67906000  1
  C  C108  1  0.03461000  0.62790000  0.46812000  1
  C  C109  1  0.43859000  0.03188000  0.87210000  1
  C  C110  1  0.00000000  0.59844000  0.40156000  1
  C  C111  1  0.50000000  0.09844000  0.90156000  1
  C  C112  1  0.08483000  0.70009000  0.38437000  1
  C  C113  1  0.50037000  0.11563000  0.79991000  1
  C  C114  1  0.16415000  0.81559000  0.39791000  1
  C  C115  1  0.45065000  0.10209000  0.68441000  1
  C  C116  1  0.08281000  0.75659000  0.37703000  1
  C  C117  1  0.44919000  0.12297000  0.74341000  1
  C  C118  1  0.91517000  0.61563000  0.29991000  1
  C  C119  1  0.49963000  0.20009000  0.88437000  1
  C  C120  1  0.91719000  0.62297000  0.24341000  1
  C  C121  1  0.55081000  0.25659000  0.87703000  1
  C  C122  1  0.82576000  0.58283000  0.29449000  1
  C  C123  1  0.44844000  0.20551000  0.91717000  1
  C  C124  1  0.83585000  0.60209000  0.18441000  1
  C  C125  1  0.54935000  0.31559000  0.89791000  1
  C  C126  1  0.74130000  0.55792000  0.23388000  1
  C  C127  1  0.44950000  0.26612000  0.94208000  1
  C  C128  1  0.74577000  0.56948000  0.17906000  1
  C  C129  1  0.49723000  0.32094000  0.93052000  1
  C  C130  1  0.65522000  0.54329000  0.11275000  1
  C  C131  1  0.49918000  0.38725000  0.95671000  1
  N  N132  1  0.50000000  0.86153000  0.13847000  1
  N  N133  1  0.00000000  0.36153000  0.63847000  1
  N  N134  1  1.00000000  0.63847000  0.36153000  1
  N  N135  1  0.50000000  0.13847000  0.86153000  1
  O  O136  1  0.54519000  0.61061000  0.01133000  1
  O  O137  1  0.42325000  0.48867000  0.88939000  1
  O  O138  1  0.45769000  0.56575000  0.05693000  1
  O  O139  1  0.33501000  0.44307000  0.93425000  1
  O  O140  1  0.54231000  0.94307000  0.43425000  1
  O  O141  1  0.66499000  0.06575000  0.55693000  1
  O  O142  1  0.42325000  0.88939000  0.48867000  1
  O  O143  1  0.54519000  0.01133000  0.61061000  1
  O  O144  1  0.45481000  0.98867000  0.38939000  1
  O  O145  1  0.57675000  0.11061000  0.51133000  1
  O  O146  1  0.33501000  0.93425000  0.44307000  1
  O  O147  1  0.45769000  0.05693000  0.56575000  1
  O  O148  1  0.66499000  0.55693000  0.06575000  1
  O  O149  1  0.54231000  0.43425000  0.94307000  1
  O  O150  1  0.57675000  0.51133000  0.11061000  1
  O  O151  1  0.45481000  0.38939000  0.98867000  1
