# generated using pymatgen
data_Eu(CO2)4
_symmetry_space_group_name_H-M   'P 1'
_cell_length_a   10.05320000
_cell_length_b   14.44510000
_cell_length_c   17.72730000
_cell_angle_alpha   90.00000000
_cell_angle_beta   90.00000000
_cell_angle_gamma   99.12010000
_symmetry_Int_Tables_number   1
_chemical_formula_structural   Eu(CO2)4
_chemical_formula_sum   'Eu8 C32 O64'
_cell_volume   2541.80502765
_cell_formula_units_Z   8
loop_
 _symmetry_equiv_pos_site_id
 _symmetry_equiv_pos_as_xyz
  1  'x, y, z'
loop_
 _atom_site_type_symbol
 _atom_site_label
 _atom_site_symmetry_multiplicity
 _atom_site_fract_x
 _atom_site_fract_y
 _atom_site_fract_z
 _atom_site_occupancy
  Eu  Eu0  1  0.99671000  0.65635000  0.37528000  1
  Eu  Eu1  1  0.98139000  0.09200000  0.34091000  1
  Eu  Eu2  1  0.51861000  0.40800000  0.84091000  1
  Eu  Eu3  1  0.50329000  0.84365000  0.87528000  1
  Eu  Eu4  1  0.49671000  0.15635000  0.12472000  1
  Eu  Eu5  1  0.48139000  0.59200000  0.15909000  1
  Eu  Eu6  1  0.01861000  0.90800000  0.65909000  1
  Eu  Eu7  1  0.00329000  0.34365000  0.62472000  1
  C  C8  1  0.94680000  0.25700000  0.45690000  1
  C  C9  1  0.94260000  0.51820000  0.52210000  1
  C  C10  1  0.93880000  0.02200000  0.51420000  1
  C  C11  1  0.92510000  0.78050000  0.51510000  1
  C  C12  1  0.81540000  0.38390000  0.76820000  1
  C  C13  1  0.78520000  0.13570000  0.20300000  1
  C  C14  1  0.76850000  0.92730000  0.77350000  1
  C  C15  1  0.75690000  0.82080000  0.76300000  1
  C  C16  1  0.74310000  0.67920000  0.26300000  1
  C  C17  1  0.73150000  0.57270000  0.27350000  1
  C  C18  1  0.71480000  0.36430000  0.70300000  1
  C  C19  1  0.68460000  0.11610000  0.26820000  1
  C  C20  1  0.57490000  0.71950000  0.01510000  1
  C  C21  1  0.56120000  0.47800000  0.01420000  1
  C  C22  1  0.55740000  0.98180000  0.02210000  1
  C  C23  1  0.55320000  0.24300000  0.95690000  1
  C  C24  1  0.44680000  0.75700000  0.04310000  1
  C  C25  1  0.44260000  0.01820000  0.97790000  1
  C  C26  1  0.43880000  0.52200000  0.98580000  1
  C  C27  1  0.42510000  0.28050000  0.98490000  1
  C  C28  1  0.31540000  0.88390000  0.73180000  1
  C  C29  1  0.28520000  0.63570000  0.29700000  1
  C  C30  1  0.26850000  0.42730000  0.72650000  1
  C  C31  1  0.25690000  0.32080000  0.73700000  1
  C  C32  1  0.24310000  0.17920000  0.23700000  1
  C  C33  1  0.23150000  0.07270000  0.22650000  1
  C  C34  1  0.21480000  0.86430000  0.79700000  1
  C  C35  1  0.18460000  0.61610000  0.23180000  1
  C  C36  1  0.07490000  0.21950000  0.48490000  1
  C  C37  1  0.06120000  0.97800000  0.48580000  1
  C  C38  1  0.05740000  0.48180000  0.47790000  1
  C  C39  1  0.05320000  0.74300000  0.54310000  1
  O  O40  1  0.93510000  0.37620000  0.75470000  1
  O  O41  1  0.92700000  0.49070000  0.58920000  1
  O  O42  1  0.91780000  0.24050000  0.38860000  1
  O  O43  1  0.91760000  0.02120000  0.58350000  1
  O  O44  1  0.90510000  0.12590000  0.21680000  1
  O  O45  1  0.88940000  0.76260000  0.44900000  1
  O  O46  1  0.88530000  0.29790000  0.50380000  1
  O  O47  1  0.87900000  0.57170000  0.48730000  1
  O  O48  1  0.87410000  0.05760000  0.46430000  1
  O  O49  1  0.86990000  0.82710000  0.56180000  1
  O  O50  1  0.85770000  0.97740000  0.73660000  1
  O  O51  1  0.84130000  0.79360000  0.71940000  1
  O  O52  1  0.83620000  0.72860000  0.29790000  1
  O  O53  1  0.81340000  0.54490000  0.31920000  1
  O  O54  1  0.76660000  0.40620000  0.82940000  1
  O  O55  1  0.75960000  0.33960000  0.64250000  1
  O  O56  1  0.74040000  0.16040000  0.14250000  1
  O  O57  1  0.73340000  0.09380000  0.32940000  1
  O  O58  1  0.68660000  0.95510000  0.81920000  1
  O  O59  1  0.66380000  0.77140000  0.79790000  1
  O  O60  1  0.65870000  0.70640000  0.21940000  1
  O  O61  1  0.64230000  0.52260000  0.23660000  1
  O  O62  1  0.63010000  0.67290000  0.06180000  1
  O  O63  1  0.62590000  0.44240000  0.96430000  1
  O  O64  1  0.62100000  0.92830000  0.98730000  1
  O  O65  1  0.61470000  0.20210000  0.00380000  1
  O  O66  1  0.61060000  0.73740000  0.94900000  1
  O  O67  1  0.59490000  0.37410000  0.71680000  1
  O  O68  1  0.58240000  0.47880000  0.08350000  1
  O  O69  1  0.58220000  0.25950000  0.88860000  1
  O  O70  1  0.57300000  0.00930000  0.08920000  1
  O  O71  1  0.56490000  0.12380000  0.25470000  1
  O  O72  1  0.43510000  0.87620000  0.74530000  1
  O  O73  1  0.42700000  0.99070000  0.91080000  1
  O  O74  1  0.41780000  0.74050000  0.11140000  1
  O  O75  1  0.41760000  0.52120000  0.91650000  1
  O  O76  1  0.40510000  0.62590000  0.28320000  1
  O  O77  1  0.38940000  0.26260000  0.05100000  1
  O  O78  1  0.38530000  0.79790000  0.99620000  1
  O  O79  1  0.37900000  0.07170000  0.01270000  1
  O  O80  1  0.37410000  0.55760000  0.03570000  1
  O  O81  1  0.36990000  0.32710000  0.93820000  1
  O  O82  1  0.35770000  0.47740000  0.76340000  1
  O  O83  1  0.34130000  0.29360000  0.78060000  1
  O  O84  1  0.33620000  0.22860000  0.20210000  1
  O  O85  1  0.31340000  0.04490000  0.18080000  1
  O  O86  1  0.26660000  0.90620000  0.67060000  1
  O  O87  1  0.25960000  0.83960000  0.85750000  1
  O  O88  1  0.24040000  0.66040000  0.35750000  1
  O  O89  1  0.23340000  0.59380000  0.17060000  1
  O  O90  1  0.18660000  0.45510000  0.68080000  1
  O  O91  1  0.16380000  0.27140000  0.70210000  1
  O  O92  1  0.15870000  0.20640000  0.28060000  1
  O  O93  1  0.14230000  0.02260000  0.26340000  1
  O  O94  1  0.13010000  0.17290000  0.43820000  1
  O  O95  1  0.12590000  0.94240000  0.53570000  1
  O  O96  1  0.12100000  0.42830000  0.51270000  1
  O  O97  1  0.11470000  0.70210000  0.49620000  1
  O  O98  1  0.11060000  0.23740000  0.55100000  1
  O  O99  1  0.09490000  0.87410000  0.78320000  1
  O  O100  1  0.08240000  0.97880000  0.41650000  1
  O  O101  1  0.08220000  0.75950000  0.61140000  1
  O  O102  1  0.07300000  0.50930000  0.41080000  1
  O  O103  1  0.06490000  0.62380000  0.24530000  1
