# generated using pymatgen
data_Bi(CO2)4
_symmetry_space_group_name_H-M   'P 1'
_cell_length_a   9.23570000
_cell_length_b   9.46825817
_cell_length_c   9.46825817
_cell_angle_alpha   76.23914676
_cell_angle_beta   60.80922787
_cell_angle_gamma   60.80922787
_symmetry_Int_Tables_number   1
_chemical_formula_structural   Bi(CO2)4
_chemical_formula_sum   'Bi2 C8 O16'
_cell_volume   631.01418599
_cell_formula_units_Z   2
loop_
 _symmetry_equiv_pos_site_id
 _symmetry_equiv_pos_as_xyz
  1  'x, y, z'
loop_
 _atom_site_type_symbol
 _atom_site_label
 _atom_site_symmetry_multiplicity
 _atom_site_fract_x
 _atom_site_fract_y
 _atom_site_fract_z
 _atom_site_occupancy
  Bi  Bi0  1  0.12500000  0.75000000  0.25000000  1
  Bi  Bi1  1  0.87500000  0.25000000  0.75000000  1
  C  C2  1  0.92300000  0.98100000  0.01900000  1
  C  C3  1  0.92300000  0.51900000  0.48100000  1
  C  C4  1  0.07700000  0.48100000  0.51900000  1
  C  C5  1  0.07700000  0.01900000  0.98100000  1
  C  C6  1  0.55800000  0.51900000  0.01900000  1
  C  C7  1  0.90400000  0.01900000  0.51900000  1
  C  C8  1  0.44200000  0.48100000  0.98100000  1
  C  C9  1  0.09600000  0.98100000  0.48100000  1
  O  O10  1  0.18000000  0.95360000  0.04640000  1
  O  O11  1  0.90900000  0.87380000  0.12620000  1
  O  O12  1  0.90900000  0.62620000  0.37380000  1
  O  O13  1  0.18000000  0.54640000  0.45360000  1
  O  O14  1  0.82000000  0.45360000  0.54640000  1
  O  O15  1  0.09100000  0.37380000  0.62620000  1
  O  O16  1  0.09100000  0.12620000  0.87380000  1
  O  O17  1  0.82000000  0.04640000  0.95360000  1
  O  O18  1  0.46480000  0.62620000  0.12620000  1
  O  O19  1  0.78280000  0.12620000  0.62620000  1
  O  O20  1  0.27360000  0.54640000  0.04640000  1
  O  O21  1  0.13360000  0.04640000  0.54640000  1
  O  O22  1  0.72640000  0.45360000  0.95360000  1
  O  O23  1  0.86640000  0.95360000  0.45360000  1
  O  O24  1  0.53520000  0.37380000  0.87380000  1
  O  O25  1  0.21720000  0.87380000  0.37380000  1
