# generated using pymatgen
data_CdH16C24S(N2O3)2
_symmetry_space_group_name_H-M   'P 1'
_cell_length_a   14.92560000
_cell_length_b   19.54060000
_cell_length_c   20.38740000
_cell_angle_alpha   90.00000000
_cell_angle_beta   94.37900000
_cell_angle_gamma   90.00000000
_symmetry_Int_Tables_number   1
_chemical_formula_structural   CdH16C24S(N2O3)2
_chemical_formula_sum   'Cd8 H128 C192 S8 N32 O48'
_cell_volume   5928.73300067
_cell_formula_units_Z   8
loop_
 _symmetry_equiv_pos_site_id
 _symmetry_equiv_pos_as_xyz
  1  'x, y, z'
loop_
 _atom_site_type_symbol
 _atom_site_label
 _atom_site_symmetry_multiplicity
 _atom_site_fract_x
 _atom_site_fract_y
 _atom_site_fract_z
 _atom_site_occupancy
  Cd  Cd0  1  0.12666000  0.95283000  0.33217000  1
  Cd  Cd1  1  0.14328000  0.54668000  0.67247000  1
  Cd  Cd2  1  0.35672000  0.04668000  0.32753000  1
  Cd  Cd3  1  0.37334000  0.45283000  0.66783000  1
  Cd  Cd4  1  0.62666000  0.54717000  0.33217000  1
  Cd  Cd5  1  0.64328000  0.95332000  0.67247000  1
  Cd  Cd6  1  0.85672000  0.45332000  0.32753000  1
  Cd  Cd7  1  0.87334000  0.04717000  0.66783000  1
  H  H8  1  0.08600000  0.04730000  0.20530000  1
  H  H9  1  0.08990000  0.05320000  0.09390000  1
  H  H10  1  0.09440000  0.43350000  0.44140000  1
  H  H11  1  0.09800000  0.44520000  0.55150000  1
  H  H12  1  0.09880000  0.05590000  0.45060000  1
  H  H13  1  0.10270000  0.44620000  0.90590000  1
  H  H14  1  0.10290000  0.06770000  0.56060000  1
  H  H15  1  0.10450000  0.48110000  0.33950000  1
  H  H16  1  0.10780000  0.61340000  0.09210000  1
  H  H17  1  0.11140000  0.44940000  0.79360000  1
  H  H18  1  0.11300000  0.63950000  0.20520000  1
  H  H19  1  0.11320000  0.88750000  0.90930000  1
  H  H20  1  0.11850000  0.41640000  0.13640000  1
  H  H21  1  0.11960000  0.02060000  0.66320000  1
  H  H22  1  0.12610000  0.44230000  0.24770000  1
  H  H23  1  0.13190000  0.86050000  0.79890000  1
  H  H24  1  0.13370000  0.08330000  0.86890000  1
  H  H25  1  0.14800000  0.91670000  0.99890000  1
  H  H26  1  0.15060000  0.05910000  0.75910000  1
  H  H27  1  0.16340000  0.63090000  0.42850000  1
  H  H28  1  0.16500000  0.33120000  0.34890000  1
  H  H29  1  0.16530000  0.63480000  0.54160000  1
  H  H30  1  0.16970000  0.57930000  0.01000000  1
  H  H31  1  0.17020000  0.86660000  0.46640000  1
  H  H32  1  0.17270000  0.86200000  0.20970000  1
  H  H33  1  0.17400000  0.87100000  0.57870000  1
  H  H34  1  0.17810000  0.16890000  0.65380000  1
  H  H35  1  0.17850000  0.86310000  0.09990000  1
  H  H36  1  0.19580000  0.63410000  0.91310000  1
  H  H37  1  0.20090000  0.63340000  0.80180000  1
  H  H38  1  0.23550000  0.21820000  0.34360000  1
  H  H39  1  0.24830000  0.28240000  0.65460000  1
  H  H40  1  0.25170000  0.78240000  0.34540000  1
  H  H41  1  0.26450000  0.71820000  0.65640000  1
  H  H42  1  0.29910000  0.13340000  0.19820000  1
  H  H43  1  0.30420000  0.13410000  0.08690000  1
  H  H44  1  0.32150000  0.36310000  0.90010000  1
  H  H45  1  0.32190000  0.66890000  0.34620000  1
  H  H46  1  0.32600000  0.37100000  0.42130000  1
  H  H47  1  0.32730000  0.36200000  0.79030000  1
  H  H48  1  0.32980000  0.36660000  0.53360000  1
  H  H49  1  0.33030000  0.07930000  0.99000000  1
  H  H50  1  0.33470000  0.13480000  0.45840000  1
  H  H51  1  0.33500000  0.83120000  0.65110000  1
  H  H52  1  0.33660000  0.13090000  0.57150000  1
  H  H53  1  0.34940000  0.55910000  0.24090000  1
  H  H54  1  0.35200000  0.41670000  0.00110000  1
  H  H55  1  0.36630000  0.58330000  0.13110000  1
  H  H56  1  0.36810000  0.36050000  0.20110000  1
  H  H57  1  0.37390000  0.94230000  0.75230000  1
  H  H58  1  0.38040000  0.52060000  0.33680000  1
  H  H59  1  0.38150000  0.91640000  0.86360000  1
  H  H60  1  0.38680000  0.38750000  0.09070000  1
  H  H61  1  0.38700000  0.13950000  0.79480000  1
  H  H62  1  0.38860000  0.94940000  0.20640000  1
  H  H63  1  0.39220000  0.11340000  0.90790000  1
  H  H64  1  0.39550000  0.98110000  0.66050000  1
  H  H65  1  0.39710000  0.56770000  0.43940000  1
  H  H66  1  0.39730000  0.94620000  0.09410000  1
  H  H67  1  0.40120000  0.55590000  0.54940000  1
  H  H68  1  0.40200000  0.94520000  0.44850000  1
  H  H69  1  0.40560000  0.93350000  0.55860000  1
  H  H70  1  0.41010000  0.55320000  0.90610000  1
  H  H71  1  0.41400000  0.54730000  0.79470000  1
  H  H72  1  0.58600000  0.45270000  0.20530000  1
  H  H73  1  0.58990000  0.44680000  0.09390000  1
  H  H74  1  0.59440000  0.06650000  0.44140000  1
  H  H75  1  0.59800000  0.05480000  0.55150000  1
  H  H76  1  0.59880000  0.44410000  0.45060000  1
  H  H77  1  0.60270000  0.05380000  0.90590000  1
  H  H78  1  0.60290000  0.43230000  0.56060000  1
  H  H79  1  0.60450000  0.01890000  0.33950000  1
  H  H80  1  0.60780000  0.88660000  0.09210000  1
  H  H81  1  0.61140000  0.05060000  0.79360000  1
  H  H82  1  0.61300000  0.86050000  0.20520000  1
  H  H83  1  0.61320000  0.61250000  0.90930000  1
  H  H84  1  0.61850000  0.08360000  0.13640000  1
  H  H85  1  0.61960000  0.47940000  0.66320000  1
  H  H86  1  0.62610000  0.05770000  0.24770000  1
  H  H87  1  0.63190000  0.63950000  0.79890000  1
  H  H88  1  0.63370000  0.41670000  0.86890000  1
  H  H89  1  0.64800000  0.58330000  0.99890000  1
  H  H90  1  0.65060000  0.44090000  0.75910000  1
  H  H91  1  0.66340000  0.86910000  0.42850000  1
  H  H92  1  0.66500000  0.16880000  0.34890000  1
  H  H93  1  0.66530000  0.86520000  0.54160000  1
  H  H94  1  0.66970000  0.92070000  0.01000000  1
  H  H95  1  0.67020000  0.63340000  0.46640000  1
  H  H96  1  0.67270000  0.63800000  0.20970000  1
  H  H97  1  0.67400000  0.62900000  0.57870000  1
  H  H98  1  0.67810000  0.33110000  0.65380000  1
  H  H99  1  0.67850000  0.63690000  0.09990000  1
  H  H100  1  0.69580000  0.86590000  0.91310000  1
  H  H101  1  0.70090000  0.86660000  0.80180000  1
  H  H102  1  0.73550000  0.28180000  0.34360000  1
  H  H103  1  0.74830000  0.21760000  0.65460000  1
  H  H104  1  0.75170000  0.71760000  0.34540000  1
  H  H105  1  0.76450000  0.78180000  0.65640000  1
  H  H106  1  0.79910000  0.36660000  0.19820000  1
  H  H107  1  0.80420000  0.36590000  0.08690000  1
  H  H108  1  0.82150000  0.13690000  0.90010000  1
  H  H109  1  0.82190000  0.83110000  0.34620000  1
  H  H110  1  0.82600000  0.12900000  0.42130000  1
  H  H111  1  0.82730000  0.13800000  0.79030000  1
  H  H112  1  0.82980000  0.13340000  0.53360000  1
  H  H113  1  0.83030000  0.42070000  0.99000000  1
  H  H114  1  0.83470000  0.36520000  0.45840000  1
  H  H115  1  0.83500000  0.66880000  0.65110000  1
  H  H116  1  0.83660000  0.36910000  0.57150000  1
  H  H117  1  0.84940000  0.94090000  0.24090000  1
  H  H118  1  0.85200000  0.08330000  0.00110000  1
  H  H119  1  0.86630000  0.91670000  0.13110000  1
  H  H120  1  0.86810000  0.13950000  0.20110000  1
  H  H121  1  0.87390000  0.55770000  0.75230000  1
  H  H122  1  0.88040000  0.97940000  0.33680000  1
  H  H123  1  0.88150000  0.58360000  0.86360000  1
  H  H124  1  0.88680000  0.11250000  0.09070000  1
  H  H125  1  0.88700000  0.36050000  0.79480000  1
  H  H126  1  0.88860000  0.55060000  0.20640000  1
  H  H127  1  0.89220000  0.38660000  0.90790000  1
  H  H128  1  0.89550000  0.51890000  0.66050000  1
  H  H129  1  0.89710000  0.93230000  0.43940000  1
  H  H130  1  0.89730000  0.55380000  0.09410000  1
  H  H131  1  0.90120000  0.94410000  0.54940000  1
  H  H132  1  0.90200000  0.55480000  0.44850000  1
  H  H133  1  0.90560000  0.56650000  0.55860000  1
  H  H134  1  0.91010000  0.94680000  0.90610000  1
  H  H135  1  0.91400000  0.95270000  0.79470000  1
  C  C136  1  0.00850000  0.84520000  0.33370000  1
  C  C137  1  0.02380000  0.65480000  0.67050000  1
  C  C138  1  0.04240000  0.28740000  0.33460000  1
  C  C139  1  0.05790000  0.21320000  0.66300000  1
  C  C140  1  0.10470000  0.00870000  0.18350000  1
  C  C141  1  0.10650000  0.01290000  0.11590000  1
  C  C142  1  0.10960000  0.47560000  0.46040000  1
  C  C143  1  0.11270000  0.48300000  0.52680000  1
  C  C144  1  0.11320000  0.57850000  0.12320000  1
  C  C145  1  0.11380000  0.17390000  0.33440000  1
  C  C146  1  0.11570000  0.01840000  0.47660000  1
  C  C147  1  0.11630000  0.49490000  0.03240000  1
  C  C148  1  0.11700000  0.02570000  0.54250000  1
  C  C149  1  0.11700000  0.51190000  0.10330000  1
  C  C150  1  0.11760000  0.59430000  0.19150000  1
  C  C151  1  0.11990000  0.46190000  0.14960000  1
  C  C152  1  0.12120000  0.00670000  0.97090000  1
  C  C153  1  0.12220000  0.48590000  0.88630000  1
  C  C154  1  0.12330000  0.92220000  0.87950000  1
  C  C155  1  0.12500000  0.47740000  0.21680000  1
  C  C156  1  0.12700000  0.48850000  0.81790000  1
  C  C157  1  0.12790000  0.32660000  0.66540000  1
  C  C158  1  0.12840000  0.54330000  0.23660000  1
  C  C159  1  0.12870000  0.98870000  0.90070000  1
  C  C160  1  0.12890000  0.09900000  0.33090000  1
  C  C161  1  0.12890000  0.53000000  0.42130000  1
  C  C162  1  0.13240000  0.95800000  0.08240000  1
  C  C163  1  0.13280000  0.90590000  0.81260000  1
  C  C164  1  0.13290000  0.29060000  0.34270000  1
  C  C165  1  0.13520000  0.03780000  0.85560000  1
  C  C166  1  0.13910000  0.97070000  0.58300000  1
  C  C167  1  0.14340000  0.95740000  0.76810000  1
  C  C168  1  0.14390000  0.56640000  0.30710000  1
  C  C169  1  0.14420000  0.02360000  0.78880000  1
  C  C170  1  0.14500000  0.40020000  0.66900000  1
  C  C171  1  0.14520000  0.53980000  0.92290000  1
  C  C172  1  0.14670000  0.20970000  0.65760000  1
  C  C173  1  0.15050000  0.59210000  0.45240000  1
  C  C174  1  0.15170000  0.59330000  0.52090000  1
  C  C175  1  0.15480000  0.90140000  0.18680000  1
  C  C176  1  0.15690000  0.90800000  0.48600000  1
  C  C177  1  0.15810000  0.90190000  0.12050000  1
  C  C178  1  0.15910000  0.93370000  0.69930000  1
  C  C179  1  0.15930000  0.90970000  0.55370000  1
  C  C180  1  0.17370000  0.22500000  0.34080000  1
  C  C181  1  0.17630000  0.59540000  0.88960000  1
  C  C182  1  0.17890000  0.59490000  0.82210000  1
  C  C183  1  0.18730000  0.27540000  0.65840000  1
  C  C184  1  0.31270000  0.77540000  0.34160000  1
  C  C185  1  0.32110000  0.09490000  0.17790000  1
  C  C186  1  0.32370000  0.09540000  0.11040000  1
  C  C187  1  0.32630000  0.72500000  0.65920000  1
  C  C188  1  0.34070000  0.40970000  0.44630000  1
  C  C189  1  0.34090000  0.43370000  0.30070000  1
  C  C190  1  0.34190000  0.40190000  0.87950000  1
  C  C191  1  0.34310000  0.40800000  0.51400000  1
  C  C192  1  0.34520000  0.40140000  0.81320000  1
  C  C193  1  0.34830000  0.09330000  0.47910000  1
  C  C194  1  0.34950000  0.09210000  0.54760000  1
  C  C195  1  0.35330000  0.70970000  0.34240000  1
  C  C196  1  0.35480000  0.03980000  0.07710000  1
  C  C197  1  0.35500000  0.90020000  0.33100000  1
  C  C198  1  0.35580000  0.52360000  0.21120000  1
  C  C199  1  0.35610000  0.06640000  0.69290000  1
  C  C200  1  0.35660000  0.45740000  0.23190000  1
  C  C201  1  0.36090000  0.47070000  0.41700000  1
  C  C202  1  0.36480000  0.53780000  0.14440000  1
  C  C203  1  0.36710000  0.79060000  0.65730000  1
  C  C204  1  0.36720000  0.40590000  0.18740000  1
  C  C205  1  0.36760000  0.45800000  0.91760000  1
  C  C206  1  0.37110000  0.03000000  0.57870000  1
  C  C207  1  0.37110000  0.59900000  0.66910000  1
  C  C208  1  0.37130000  0.48870000  0.09930000  1
  C  C209  1  0.37160000  0.04330000  0.76340000  1
  C  C210  1  0.37210000  0.82660000  0.33460000  1
  C  C211  1  0.37300000  0.98850000  0.18210000  1
  C  C212  1  0.37500000  0.97740000  0.78320000  1
  C  C213  1  0.37670000  0.42220000  0.12050000  1
  C  C214  1  0.37780000  0.98590000  0.11370000  1
  C  C215  1  0.37880000  0.50670000  0.02910000  1
  C  C216  1  0.38010000  0.96190000  0.85040000  1
  C  C217  1  0.38240000  0.09430000  0.80850000  1
  C  C218  1  0.38300000  0.01190000  0.89670000  1
  C  C219  1  0.38300000  0.52570000  0.45750000  1
  C  C220  1  0.38370000  0.99490000  0.96760000  1
  C  C221  1  0.38430000  0.51840000  0.52340000  1
  C  C222  1  0.38620000  0.67390000  0.66560000  1
  C  C223  1  0.38680000  0.07850000  0.87680000  1
  C  C224  1  0.38730000  0.98300000  0.47320000  1
  C  C225  1  0.39040000  0.97560000  0.53960000  1
  C  C226  1  0.39350000  0.51290000  0.88410000  1
  C  C227  1  0.39530000  0.50870000  0.81650000  1
  C  C228  1  0.44210000  0.71320000  0.33700000  1
  C  C229  1  0.45760000  0.78740000  0.66540000  1
  C  C230  1  0.47620000  0.15480000  0.32950000  1
  C  C231  1  0.49150000  0.34520000  0.66630000  1
  C  C232  1  0.50850000  0.65480000  0.33370000  1
  C  C233  1  0.52380000  0.84520000  0.67050000  1
  C  C234  1  0.54240000  0.21260000  0.33460000  1
  C  C235  1  0.55790000  0.28680000  0.66300000  1
  C  C236  1  0.60470000  0.49130000  0.18350000  1
  C  C237  1  0.60650000  0.48710000  0.11590000  1
  C  C238  1  0.60960000  0.02440000  0.46040000  1
  C  C239  1  0.61270000  0.01700000  0.52680000  1
  C  C240  1  0.61320000  0.92150000  0.12320000  1
  C  C241  1  0.61380000  0.32610000  0.33440000  1
  C  C242  1  0.61570000  0.48160000  0.47660000  1
  C  C243  1  0.61630000  0.00510000  0.03240000  1
  C  C244  1  0.61700000  0.47430000  0.54250000  1
  C  C245  1  0.61700000  0.98810000  0.10330000  1
  C  C246  1  0.61760000  0.90570000  0.19150000  1
  C  C247  1  0.61990000  0.03810000  0.14960000  1
  C  C248  1  0.62120000  0.49330000  0.97090000  1
  C  C249  1  0.62220000  0.01410000  0.88630000  1
  C  C250  1  0.62330000  0.57780000  0.87950000  1
  C  C251  1  0.62500000  0.02260000  0.21680000  1
  C  C252  1  0.62700000  0.01150000  0.81790000  1
  C  C253  1  0.62790000  0.17340000  0.66540000  1
  C  C254  1  0.62840000  0.95670000  0.23660000  1
  C  C255  1  0.62870000  0.51130000  0.90070000  1
  C  C256  1  0.62890000  0.40100000  0.33090000  1
  C  C257  1  0.62890000  0.97000000  0.42130000  1
  C  C258  1  0.63240000  0.54200000  0.08240000  1
  C  C259  1  0.63280000  0.59410000  0.81260000  1
  C  C260  1  0.63290000  0.20940000  0.34270000  1
  C  C261  1  0.63520000  0.46220000  0.85560000  1
  C  C262  1  0.63910000  0.52930000  0.58300000  1
  C  C263  1  0.64340000  0.54260000  0.76810000  1
  C  C264  1  0.64390000  0.93360000  0.30710000  1
  C  C265  1  0.64420000  0.47640000  0.78880000  1
  C  C266  1  0.64500000  0.09980000  0.66900000  1
  C  C267  1  0.64520000  0.96020000  0.92290000  1
  C  C268  1  0.64670000  0.29030000  0.65760000  1
  C  C269  1  0.65050000  0.90790000  0.45240000  1
  C  C270  1  0.65170000  0.90670000  0.52090000  1
  C  C271  1  0.65480000  0.59860000  0.18680000  1
  C  C272  1  0.65690000  0.59200000  0.48600000  1
  C  C273  1  0.65810000  0.59810000  0.12050000  1
  C  C274  1  0.65910000  0.56630000  0.69930000  1
  C  C275  1  0.65930000  0.59030000  0.55370000  1
  C  C276  1  0.67370000  0.27500000  0.34080000  1
  C  C277  1  0.67630000  0.90460000  0.88960000  1
  C  C278  1  0.67890000  0.90510000  0.82210000  1
  C  C279  1  0.68730000  0.22460000  0.65840000  1
  C  C280  1  0.81270000  0.72460000  0.34160000  1
  C  C281  1  0.82110000  0.40510000  0.17790000  1
  C  C282  1  0.82370000  0.40460000  0.11040000  1
  C  C283  1  0.82630000  0.77500000  0.65920000  1
  C  C284  1  0.84070000  0.09030000  0.44630000  1
  C  C285  1  0.84090000  0.06630000  0.30070000  1
  C  C286  1  0.84190000  0.09810000  0.87950000  1
  C  C287  1  0.84310000  0.09200000  0.51400000  1
  C  C288  1  0.84520000  0.09860000  0.81320000  1
  C  C289  1  0.84830000  0.40670000  0.47910000  1
  C  C290  1  0.84950000  0.40790000  0.54760000  1
  C  C291  1  0.85330000  0.79030000  0.34240000  1
  C  C292  1  0.85480000  0.46020000  0.07710000  1
  C  C293  1  0.85500000  0.59980000  0.33100000  1
  C  C294  1  0.85580000  0.97640000  0.21120000  1
  C  C295  1  0.85610000  0.43360000  0.69290000  1
  C  C296  1  0.85660000  0.04260000  0.23190000  1
  C  C297  1  0.86090000  0.02930000  0.41700000  1
  C  C298  1  0.86480000  0.96220000  0.14440000  1
  C  C299  1  0.86710000  0.70940000  0.65730000  1
  C  C300  1  0.86720000  0.09410000  0.18740000  1
  C  C301  1  0.86760000  0.04200000  0.91760000  1
  C  C302  1  0.87110000  0.47000000  0.57870000  1
  C  C303  1  0.87110000  0.90100000  0.66910000  1
  C  C304  1  0.87130000  0.01130000  0.09930000  1
  C  C305  1  0.87160000  0.45670000  0.76340000  1
  C  C306  1  0.87210000  0.67340000  0.33460000  1
  C  C307  1  0.87300000  0.51150000  0.18210000  1
  C  C308  1  0.87500000  0.52260000  0.78320000  1
  C  C309  1  0.87670000  0.07780000  0.12050000  1
  C  C310  1  0.87780000  0.51410000  0.11370000  1
  C  C311  1  0.87880000  0.99330000  0.02910000  1
  C  C312  1  0.88010000  0.53810000  0.85040000  1
  C  C313  1  0.88240000  0.40570000  0.80850000  1
  C  C314  1  0.88300000  0.48810000  0.89670000  1
  C  C315  1  0.88300000  0.97430000  0.45750000  1
  C  C316  1  0.88370000  0.50510000  0.96760000  1
  C  C317  1  0.88430000  0.98160000  0.52340000  1
  C  C318  1  0.88620000  0.82610000  0.66560000  1
  C  C319  1  0.88680000  0.42150000  0.87680000  1
  C  C320  1  0.88730000  0.51700000  0.47320000  1
  C  C321  1  0.89040000  0.52440000  0.53960000  1
  C  C322  1  0.89350000  0.98710000  0.88410000  1
  C  C323  1  0.89530000  0.99130000  0.81650000  1
  C  C324  1  0.94210000  0.78680000  0.33700000  1
  C  C325  1  0.95760000  0.71260000  0.66540000  1
  C  C326  1  0.97620000  0.34520000  0.32950000  1
  C  C327  1  0.99150000  0.15480000  0.66630000  1
  S  S328  1  0.00513000  0.20444000  0.32841000  1
  S  S329  1  0.02116000  0.29566000  0.66976000  1
  S  S330  1  0.47884000  0.79566000  0.33024000  1
  S  S331  1  0.49487000  0.70444000  0.67159000  1
  S  S332  1  0.50513000  0.29556000  0.32841000  1
  S  S333  1  0.52116000  0.20434000  0.66976000  1
  S  S334  1  0.97884000  0.70434000  0.33024000  1
  S  S335  1  0.99487000  0.79556000  0.67159000  1
  N  N336  1  0.12320000  0.52050000  0.35360000  1
  N  N337  1  0.12760000  0.95410000  0.22000000  1
  N  N338  1  0.13510000  0.54060000  0.55910000  1
  N  N339  1  0.13540000  0.95590000  0.01500000  1
  N  N340  1  0.13670000  0.98100000  0.65080000  1
  N  N341  1  0.13720000  0.96080000  0.44660000  1
  N  N342  1  0.14690000  0.54300000  0.99170000  1
  N  N343  1  0.15230000  0.54330000  0.78570000  1
  N  N344  1  0.34770000  0.04330000  0.21430000  1
  N  N345  1  0.35310000  0.04300000  0.00830000  1
  N  N346  1  0.36280000  0.46080000  0.55340000  1
  N  N347  1  0.36330000  0.48100000  0.34920000  1
  N  N348  1  0.36460000  0.45590000  0.98500000  1
  N  N349  1  0.36490000  0.04060000  0.44090000  1
  N  N350  1  0.37240000  0.45410000  0.78000000  1
  N  N351  1  0.37680000  0.02050000  0.64640000  1
  N  N352  1  0.62320000  0.97950000  0.35360000  1
  N  N353  1  0.62760000  0.54590000  0.22000000  1
  N  N354  1  0.63510000  0.95940000  0.55910000  1
  N  N355  1  0.63540000  0.54410000  0.01500000  1
  N  N356  1  0.63670000  0.51900000  0.65080000  1
  N  N357  1  0.63720000  0.53920000  0.44660000  1
  N  N358  1  0.64690000  0.95700000  0.99170000  1
  N  N359  1  0.65230000  0.95670000  0.78570000  1
  N  N360  1  0.84770000  0.45670000  0.21430000  1
  N  N361  1  0.85310000  0.45700000  0.00830000  1
  N  N362  1  0.86280000  0.03920000  0.55340000  1
  N  N363  1  0.86330000  0.01900000  0.34920000  1
  N  N364  1  0.86460000  0.04410000  0.98500000  1
  N  N365  1  0.86490000  0.45940000  0.44090000  1
  N  N366  1  0.87240000  0.04590000  0.78000000  1
  N  N367  1  0.87680000  0.47950000  0.64640000  1
  O  O368  1  0.00740000  0.40509000  0.33223000  1
  O  O369  1  0.02110000  0.09537000  0.66395000  1
  O  O370  1  0.06180000  0.06127000  0.32700000  1
  O  O371  1  0.07610000  0.43886000  0.67430000  1
  O  O372  1  0.08950000  0.83205000  0.33130000  1
  O  O373  1  0.09190000  0.43680000  0.01320000  1
  O  O374  1  0.10210000  0.06370000  0.98710000  1
  O  O375  1  0.10570000  0.66705000  0.67330000  1
  O  O376  1  0.17510000  0.62210000  0.32060000  1
  O  O377  1  0.19360000  0.87970000  0.68885000  1
  O  O378  1  0.20740000  0.07783000  0.33230000  1
  O  O379  1  0.22180000  0.42430000  0.66590000  1
  O  O380  1  0.27820000  0.92430000  0.33410000  1
  O  O381  1  0.29260000  0.57783000  0.66770000  1
  O  O382  1  0.30640000  0.37970000  0.31115000  1
  O  O383  1  0.32490000  0.12210000  0.67940000  1
  O  O384  1  0.39430000  0.16705000  0.32670000  1
  O  O385  1  0.39790000  0.56370000  0.01290000  1
  O  O386  1  0.40810000  0.93680000  0.98680000  1
  O  O387  1  0.41050000  0.33205000  0.66870000  1
  O  O388  1  0.42390000  0.93886000  0.32570000  1
  O  O389  1  0.43820000  0.56127000  0.67300000  1
  O  O390  1  0.47890000  0.59537000  0.33605000  1
  O  O391  1  0.49260000  0.90509000  0.66777000  1
  O  O392  1  0.50740000  0.09491000  0.33223000  1
  O  O393  1  0.52110000  0.40463000  0.66395000  1
  O  O394  1  0.56180000  0.43873000  0.32700000  1
  O  O395  1  0.57610000  0.06114000  0.67430000  1
  O  O396  1  0.58950000  0.66795000  0.33130000  1
  O  O397  1  0.59190000  0.06320000  0.01320000  1
  O  O398  1  0.60210000  0.43630000  0.98710000  1
  O  O399  1  0.60570000  0.83295000  0.67330000  1
  O  O400  1  0.67510000  0.87790000  0.32060000  1
  O  O401  1  0.69360000  0.62030000  0.68885000  1
  O  O402  1  0.70740000  0.42217000  0.33230000  1
  O  O403  1  0.72180000  0.07570000  0.66590000  1
  O  O404  1  0.77820000  0.57570000  0.33410000  1
  O  O405  1  0.79260000  0.92217000  0.66770000  1
  O  O406  1  0.80640000  0.12030000  0.31115000  1
  O  O407  1  0.82490000  0.37790000  0.67940000  1
  O  O408  1  0.89430000  0.33295000  0.32670000  1
  O  O409  1  0.89790000  0.93630000  0.01290000  1
  O  O410  1  0.90810000  0.56320000  0.98680000  1
  O  O411  1  0.91050000  0.16795000  0.66870000  1
  O  O412  1  0.92390000  0.56114000  0.32570000  1
  O  O413  1  0.93820000  0.93873000  0.67300000  1
  O  O414  1  0.97890000  0.90463000  0.33605000  1
  O  O415  1  0.99260000  0.59491000  0.66777000  1
