# generated using pymatgen
data_MgAl3(PO4)4
_symmetry_space_group_name_H-M   'P 1'
_cell_length_a   9.38600000
_cell_length_b   12.38900000
_cell_length_c   14.92300000
_cell_angle_alpha   90.00000000
_cell_angle_beta   90.00000000
_cell_angle_gamma   98.69900000
_symmetry_Int_Tables_number   1
_chemical_formula_structural   MgAl3(PO4)4
_chemical_formula_sum   'Mg4 Al12 P16 O64'
_cell_volume   1715.33160454
_cell_formula_units_Z   4
loop_
 _symmetry_equiv_pos_site_id
 _symmetry_equiv_pos_as_xyz
  1  'x, y, z'
loop_
 _atom_site_type_symbol
 _atom_site_label
 _atom_site_symmetry_multiplicity
 _atom_site_fract_x
 _atom_site_fract_y
 _atom_site_fract_z
 _atom_site_occupancy
  Mg  Mg0  1  0.34140000  0.32330000  0.51529000  1
  Mg  Mg1  1  0.84140000  0.32330000  0.98471000  1
  Mg  Mg2  1  0.15860000  0.67670000  0.01529000  1
  Mg  Mg3  1  0.65860000  0.67670000  0.48471000  1
  Al  Al4  1  0.56040000  0.05654000  0.66957000  1
  Al  Al5  1  0.06040000  0.05654000  0.83043000  1
  Al  Al6  1  0.20350000  0.27376000  0.16899000  1
  Al  Al7  1  0.70350000  0.27376000  0.33101000  1
  Al  Al8  1  0.87380000  0.35496000  0.68840000  1
  Al  Al9  1  0.37380000  0.35496000  0.81160000  1
  Al  Al10  1  0.62620000  0.64504000  0.18840000  1
  Al  Al11  1  0.12620000  0.64504000  0.31160000  1
  Al  Al12  1  0.29650000  0.72624000  0.66899000  1
  Al  Al13  1  0.79650000  0.72624000  0.83101000  1
  Al  Al14  1  0.93960000  0.94346000  0.16957000  1
  Al  Al15  1  0.43960000  0.94346000  0.33043000  1
  P  P16  1  0.28720000  0.15605000  0.68447000  1
  P  P17  1  0.78720000  0.15605000  0.81553000  1
  P  P18  1  0.87670000  0.19303000  0.17320000  1
  P  P19  1  0.37670000  0.19303000  0.32680000  1
  P  P20  1  0.67220000  0.24592000  0.53510000  1
  P  P21  1  0.17220000  0.24592000  0.96490000  1
  P  P22  1  0.20350000  0.47001000  0.67600000  1
  P  P23  1  0.70350000  0.47001000  0.82400000  1
  P  P24  1  0.29650000  0.52999000  0.17600000  1
  P  P25  1  0.79650000  0.52999000  0.32400000  1
  P  P26  1  0.82780000  0.75408000  0.03510000  1
  P  P27  1  0.32780000  0.75408000  0.46490000  1
  P  P28  1  0.62330000  0.80697000  0.67320000  1
  P  P29  1  0.12330000  0.80697000  0.82680000  1
  P  P30  1  0.21280000  0.84395000  0.18447000  1
  P  P31  1  0.71280000  0.84395000  0.31553000  1
  O  O32  1  0.37610000  0.06060000  0.67740000  1
  O  O33  1  0.87610000  0.06060000  0.82260000  1
  O  O34  1  0.90910000  0.07610000  0.15630000  1
  O  O35  1  0.40910000  0.07610000  0.34370000  1
  O  O36  1  0.14730000  0.11260000  0.73400000  1
  O  O37  1  0.64730000  0.11260000  0.76600000  1
  O  O38  1  0.63380000  0.12950000  0.57680000  1
  O  O39  1  0.13380000  0.12950000  0.92320000  1
  O  O40  1  0.28410000  0.19000000  0.24060000  1
  O  O41  1  0.78410000  0.19000000  0.25940000  1
  O  O42  1  0.24950000  0.19300000  0.59200000  1
  O  O43  1  0.74950000  0.19300000  0.90800000  1
  O  O44  1  0.22410000  0.22390000  0.06080000  1
  O  O45  1  0.72410000  0.22390000  0.43920000  1
  O  O46  1  0.79760000  0.23060000  0.09410000  1
  O  O47  1  0.29760000  0.23060000  0.40590000  1
  O  O48  1  0.37870000  0.24460000  0.73870000  1
  O  O49  1  0.87870000  0.24460000  0.76130000  1
  O  O50  1  0.02020000  0.26810000  0.19280000  1
  O  O51  1  0.52020000  0.26810000  0.30720000  1
  O  O52  1  0.80570000  0.30290000  0.58480000  1
  O  O53  1  0.30570000  0.30290000  0.91520000  1
  O  O54  1  0.55030000  0.31130000  0.53710000  1
  O  O55  1  0.05030000  0.31130000  0.96290000  1
  O  O56  1  0.29140000  0.40740000  0.17660000  1
  O  O57  1  0.79140000  0.40740000  0.32340000  1
  O  O58  1  0.04590000  0.41940000  0.66840000  1
  O  O59  1  0.54590000  0.41940000  0.83160000  1
  O  O60  1  0.29240000  0.43180000  0.60220000  1
  O  O61  1  0.79240000  0.43180000  0.89780000  1
  O  O62  1  0.75680000  0.43910000  0.73070000  1
  O  O63  1  0.25680000  0.43910000  0.76930000  1
  O  O64  1  0.74320000  0.56090000  0.23070000  1
  O  O65  1  0.24320000  0.56090000  0.26930000  1
  O  O66  1  0.20760000  0.56820000  0.10220000  1
  O  O67  1  0.70760000  0.56820000  0.39780000  1
  O  O68  1  0.45410000  0.58060000  0.16840000  1
  O  O69  1  0.95410000  0.58060000  0.33160000  1
  O  O70  1  0.20860000  0.59260000  0.67660000  1
  O  O71  1  0.70860000  0.59260000  0.82340000  1
  O  O72  1  0.94970000  0.68870000  0.03710000  1
  O  O73  1  0.44970000  0.68870000  0.46290000  1
  O  O74  1  0.69430000  0.69710000  0.08480000  1
  O  O75  1  0.19430000  0.69710000  0.41520000  1
  O  O76  1  0.47980000  0.73190000  0.69280000  1
  O  O77  1  0.97980000  0.73190000  0.80720000  1
  O  O78  1  0.12130000  0.75540000  0.23870000  1
  O  O79  1  0.62130000  0.75540000  0.26130000  1
  O  O80  1  0.70240000  0.76940000  0.59410000  1
  O  O81  1  0.20240000  0.76940000  0.90590000  1
  O  O82  1  0.27590000  0.77610000  0.56080000  1
  O  O83  1  0.77590000  0.77610000  0.93920000  1
  O  O84  1  0.25050000  0.80700000  0.09200000  1
  O  O85  1  0.75050000  0.80700000  0.40800000  1
  O  O86  1  0.21590000  0.81000000  0.74060000  1
  O  O87  1  0.71590000  0.81000000  0.75940000  1
  O  O88  1  0.86620000  0.87050000  0.07680000  1
  O  O89  1  0.36620000  0.87050000  0.42320000  1
  O  O90  1  0.35270000  0.88740000  0.23400000  1
  O  O91  1  0.85270000  0.88740000  0.26600000  1
  O  O92  1  0.59090000  0.92390000  0.65630000  1
  O  O93  1  0.09090000  0.92390000  0.84370000  1
  O  O94  1  0.12390000  0.93940000  0.17740000  1
  O  O95  1  0.62390000  0.93940000  0.32260000  1
