# generated using pymatgen
data_Mn2H6C16N2O13
_symmetry_space_group_name_H-M   'P 1'
_cell_length_a   13.28190000
_cell_length_b   15.40459148
_cell_length_c   15.40459148
_cell_angle_alpha   66.48502840
_cell_angle_beta   77.72195467
_cell_angle_gamma   77.72195467
_symmetry_Int_Tables_number   1
_chemical_formula_structural   Mn2H6C16N2O13
_chemical_formula_sum   'Mn8 H24 C64 N8 O52'
_cell_volume   2795.09125689
_cell_formula_units_Z   4
loop_
 _symmetry_equiv_pos_site_id
 _symmetry_equiv_pos_as_xyz
  1  'x, y, z'
loop_
 _atom_site_type_symbol
 _atom_site_label
 _atom_site_symmetry_multiplicity
 _atom_site_fract_x
 _atom_site_fract_y
 _atom_site_fract_z
 _atom_site_occupancy
  C  C0  1  0.92150000  0.38190000  0.58150000  1
  C  C1  1  0.42150000  0.58150000  0.38190000  1
  C  C2  1  0.96300000  0.30320000  0.65420000  1
  C  C3  1  0.46300000  0.65420000  0.30320000  1
  C  C4  1  0.56950000  0.25220000  0.70460000  1
  C  C5  1  0.06950000  0.70460000  0.25220000  1
  C  C6  1  0.64880000  0.39820000  0.54820000  1
  C  C7  1  0.14880000  0.54820000  0.39820000  1
  C  C8  1  0.95390000  0.38760000  0.47900000  1
  C  C9  1  0.45390000  0.47900000  0.38760000  1
  C  C10  1  0.64160000  0.22850000  0.63370000  1
  C  C11  1  0.14160000  0.63370000  0.22850000  1
  C  C12  1  0.68160000  0.30400000  0.55440000  1
  C  C13  1  0.18160000  0.55440000  0.30400000  1
  C  C14  1  0.66650000  0.12870000  0.63250000  1
  C  C15  1  0.16650000  0.63250000  0.12870000  1
  C  C16  1  0.76250000  0.28440000  0.47620000  1
  C  C17  1  0.26250000  0.47620000  0.28440000  1
  C  C18  1  0.74920000  0.06150000  0.66890000  1
  C  C19  1  0.24920000  0.66890000  0.06150000  1
  C  C20  1  0.51180000  0.17630000  0.54410000  1
  C  C21  1  0.01180000  0.54410000  0.17630000  1
  C  C22  1  0.60320000  0.10500000  0.58560000  1
  C  C23  1  0.10320000  0.58560000  0.10500000  1
  C  C24  1  0.76840000  0.97500000  0.66040000  1
  C  C25  1  0.26840000  0.66040000  0.97500000  1
  C  C26  1  0.62240000  0.01600000  0.57900000  1
  C  C27  1  0.12240000  0.57900000  0.01600000  1
  C  C28  1  0.70280000  0.95220000  0.61500000  1
  C  C29  1  0.20280000  0.61500000  0.95220000  1
  C  C30  1  0.27530000  0.14450000  0.39530000  1
  C  C31  1  0.77530000  0.39530000  0.14450000  1
  C  C32  1  0.72470000  0.85550000  0.60470000  1
  C  C33  1  0.22470000  0.60470000  0.85550000  1
  C  C34  1  0.29720000  0.04780000  0.38500000  1
  C  C35  1  0.79720000  0.38500000  0.04780000  1
  C  C36  1  0.37760000  0.98400000  0.42100000  1
  C  C37  1  0.87760000  0.42100000  0.98400000  1
  C  C38  1  0.23160000  0.02500000  0.33960000  1
  C  C39  1  0.73160000  0.33960000  0.02500000  1
  C  C40  1  0.39680000  0.89500000  0.41440000  1
  C  C41  1  0.89680000  0.41440000  0.89500000  1
  C  C42  1  0.48820000  0.82370000  0.45590000  1
  C  C43  1  0.98820000  0.45590000  0.82370000  1
  C  C44  1  0.25080000  0.93850000  0.33110000  1
  C  C45  1  0.75080000  0.33110000  0.93850000  1
  C  C46  1  0.23750000  0.71560000  0.52380000  1
  C  C47  1  0.73750000  0.52380000  0.71560000  1
  C  C48  1  0.33350000  0.87130000  0.36750000  1
  C  C49  1  0.83350000  0.36750000  0.87130000  1
  C  C50  1  0.31840000  0.69600000  0.44560000  1
  C  C51  1  0.81840000  0.44560000  0.69600000  1
  C  C52  1  0.35840000  0.77150000  0.36630000  1
  C  C53  1  0.85840000  0.36630000  0.77150000  1
  C  C54  1  0.04610000  0.61240000  0.52100000  1
  C  C55  1  0.54610000  0.52100000  0.61240000  1
  C  C56  1  0.35120000  0.60180000  0.45180000  1
  C  C57  1  0.85120000  0.45180000  0.60180000  1
  C  C58  1  0.43050000  0.74780000  0.29540000  1
  C  C59  1  0.93050000  0.29540000  0.74780000  1
  C  C60  1  0.03700000  0.69680000  0.34580000  1
  C  C61  1  0.53700000  0.34580000  0.69680000  1
  C  C62  1  0.07850000  0.61810000  0.41850000  1
  C  C63  1  0.57850000  0.41850000  0.61810000  1
  H  H64  1  0.67540000  0.44780000  0.49560000  1
  H  H65  1  0.17540000  0.49560000  0.44780000  1
  H  H66  1  0.01230000  0.25630000  0.63990000  1
  H  H67  1  0.51230000  0.63990000  0.25630000  1
  H  H68  1  0.92890000  0.26170000  0.38370000  1
  H  H69  1  0.42890000  0.38370000  0.26170000  1
  H  H70  1  0.82500000  0.93090000  0.68470000  1
  H  H71  1  0.32500000  0.68470000  0.93090000  1
  H  H72  1  0.43530000  0.28580000  0.31600000  1
  H  H73  1  0.93530000  0.31600000  0.28580000  1
  H  H74  1  0.57890000  0.00030000  0.54910000  1
  H  H75  1  0.07890000  0.54910000  0.00030000  1
  H  H76  1  0.42110000  0.99970000  0.45090000  1
  H  H77  1  0.92110000  0.45090000  0.99970000  1
  H  H78  1  0.56470000  0.71420000  0.68400000  1
  H  H79  1  0.06470000  0.68400000  0.71420000  1
  H  H80  1  0.17500000  0.06910000  0.31530000  1
  H  H81  1  0.67500000  0.31530000  0.06910000  1
  H  H82  1  0.07110000  0.73830000  0.61630000  1
  H  H83  1  0.57110000  0.61630000  0.73830000  1
  H  H84  1  0.98770000  0.74370000  0.36010000  1
  H  H85  1  0.48770000  0.36010000  0.74370000  1
  H  H86  1  0.32460000  0.55220000  0.50440000  1
  H  H87  1  0.82460000  0.50440000  0.55220000  1
  Mn  Mn88  1  0.35667000  0.29266000  0.43848000  1
  Mn  Mn89  1  0.85667000  0.43848000  0.29266000  1
  Mn  Mn90  1  0.61595000  0.32275000  0.33151000  1
  Mn  Mn91  1  0.11595000  0.33151000  0.32275000  1
  Mn  Mn92  1  0.38405000  0.67725000  0.66849000  1
  Mn  Mn93  1  0.88405000  0.66849000  0.67725000  1
  Mn  Mn94  1  0.64333000  0.70734000  0.56152000  1
  Mn  Mn95  1  0.14333000  0.56152000  0.70734000  1
  N  N96  1  0.52740000  0.17980000  0.78860000  1
  N  N97  1  0.02740000  0.78860000  0.17980000  1
  N  N98  1  0.81480000  0.07840000  0.72160000  1
  N  N99  1  0.31480000  0.72160000  0.07840000  1
  N  N100  1  0.18520000  0.92160000  0.27840000  1
  N  N101  1  0.68520000  0.27840000  0.92160000  1
  N  N102  1  0.47260000  0.82020000  0.21140000  1
  N  N103  1  0.97260000  0.21140000  0.82020000  1
  O  O104  1  0.06100000  0.16790000  0.79650000  1
  O  O105  1  0.56100000  0.79650000  0.16790000  1
  O  O106  1  0.57050000  0.09760000  0.81580000  1
  O  O107  1  0.07050000  0.81580000  0.09760000  1
  O  O108  1  0.79720000  0.14500000  0.74240000  1
  O  O109  1  0.29720000  0.74240000  0.14500000  1
  O  O110  1  0.39020000  0.42180000  0.43780000  1
  O  O111  1  0.89020000  0.43780000  0.42180000  1
  O  O112  1  0.03980000  0.34390000  0.45770000  1
  O  O113  1  0.53980000  0.45770000  0.34390000  1
  O  O114  1  0.42830000  0.17730000  0.59150000  1
  O  O115  1  0.92830000  0.59150000  0.17730000  1
  O  O116  1  0.90440000  0.03990000  0.71850000  1
  O  O117  1  0.40440000  0.71850000  0.03990000  1
  O  O118  1  0.74470000  0.33550000  0.39110000  1
  O  O119  1  0.24470000  0.39110000  0.33550000  1
  O  O120  1  0.84020000  0.22530000  0.49890000  1
  O  O121  1  0.34020000  0.49890000  0.22530000  1
  O  O122  1  0.52540000  0.23450000  0.46050000  1
  O  O123  1  0.02540000  0.46050000  0.23450000  1
  O  O124  1  0.96870000  0.27790000  0.33070000  1
  O  O125  1  0.46870000  0.33070000  0.27790000  1
  O  O126  1  0.34900000  0.17110000  0.41130000  1
  O  O127  1  0.84900000  0.41130000  0.17110000  1
  O  O128  1  0.18460000  0.18930000  0.38870000  1
  O  O129  1  0.68460000  0.38870000  0.18930000  1
  O  O130  1  0.81540000  0.81070000  0.61130000  1
  O  O131  1  0.31540000  0.61130000  0.81070000  1
  O  O132  1  0.65100000  0.82890000  0.58870000  1
  O  O133  1  0.15100000  0.58870000  0.82890000  1
  O  O134  1  0.03130000  0.72210000  0.66930000  1
  O  O135  1  0.53130000  0.66930000  0.72210000  1
  O  O136  1  0.47460000  0.76550000  0.53950000  1
  O  O137  1  0.97460000  0.53950000  0.76550000  1
  O  O138  1  0.15980000  0.77470000  0.50110000  1
  O  O139  1  0.65980000  0.50110000  0.77470000  1
  O  O140  1  0.25530000  0.66450000  0.60890000  1
  O  O141  1  0.75530000  0.60890000  0.66450000  1
  O  O142  1  0.09560000  0.96010000  0.28150000  1
  O  O143  1  0.59560000  0.28150000  0.96010000  1
  O  O144  1  0.57170000  0.82270000  0.40850000  1
  O  O145  1  0.07170000  0.40850000  0.82270000  1
  O  O146  1  0.96020000  0.65610000  0.54230000  1
  O  O147  1  0.46020000  0.54230000  0.65610000  1
  O  O148  1  0.60980000  0.57820000  0.56220000  1
  O  O149  1  0.10980000  0.56220000  0.57820000  1
  O  O150  1  0.20280000  0.85500000  0.25760000  1
  O  O151  1  0.70280000  0.25760000  0.85500000  1
  O  O152  1  0.42950000  0.90240000  0.18420000  1
  O  O153  1  0.92950000  0.18420000  0.90240000  1
  O  O154  1  0.93900000  0.83210000  0.20350000  1
  O  O155  1  0.43900000  0.20350000  0.83210000  1
