# generated using pymatgen
data_CuH3(C2O)4
_symmetry_space_group_name_H-M   'P 1'
_cell_length_a   7.86000000
_cell_length_b   13.75700000
_cell_length_c   20.75300000
_cell_angle_alpha   90.00000000
_cell_angle_beta   90.00000000
_cell_angle_gamma   91.66000000
_symmetry_Int_Tables_number   1
_chemical_formula_structural   CuH3(C2O)4
_chemical_formula_sum   'Cu8 H24 C64 O32'
_cell_volume   2243.08055056
_cell_formula_units_Z   8
loop_
 _symmetry_equiv_pos_site_id
 _symmetry_equiv_pos_as_xyz
  1  'x, y, z'
loop_
 _atom_site_type_symbol
 _atom_site_label
 _atom_site_symmetry_multiplicity
 _atom_site_fract_x
 _atom_site_fract_y
 _atom_site_fract_z
 _atom_site_occupancy
  Cu  Cu0  1  0.07707000  0.08405000  0.51081000  1
  Cu  Cu1  1  0.57707000  0.08405000  0.98919000  1
  Cu  Cu2  1  0.96594000  0.49698000  0.16455000  1
  Cu  Cu3  1  0.46594000  0.49698000  0.33545000  1
  Cu  Cu4  1  0.53406000  0.50302000  0.66455000  1
  Cu  Cu5  1  0.03406000  0.50302000  0.83545000  1
  Cu  Cu6  1  0.42293000  0.91595000  0.01081000  1
  Cu  Cu7  1  0.92293000  0.91595000  0.48919000  1
  H  H8  1  0.99300000  0.04500000  0.11810000  1
  H  H9  1  0.49300000  0.04500000  0.38190000  1
  H  H10  1  0.65200000  0.05000000  0.20260000  1
  H  H11  1  0.15200000  0.05000000  0.29740000  1
  H  H12  1  0.28500000  0.14500000  0.74000000  1
  H  H13  1  0.78500000  0.14500000  0.76000000  1
  H  H14  1  0.77000000  0.18800000  0.16840000  1
  H  H15  1  0.27000000  0.18800000  0.33160000  1
  H  H16  1  0.66200000  0.22700000  0.62470000  1
  H  H17  1  0.16200000  0.22700000  0.87530000  1
  H  H18  1  0.43570000  0.24600000  0.15650000  1
  H  H19  1  0.93570000  0.24600000  0.34350000  1
  H  H20  1  0.06430000  0.75400000  0.65650000  1
  H  H21  1  0.56430000  0.75400000  0.84350000  1
  H  H22  1  0.83800000  0.77300000  0.12470000  1
  H  H23  1  0.33800000  0.77300000  0.37530000  1
  H  H24  1  0.73000000  0.81200000  0.66840000  1
  H  H25  1  0.23000000  0.81200000  0.83160000  1
  H  H26  1  0.21500000  0.85500000  0.24000000  1
  H  H27  1  0.71500000  0.85500000  0.26000000  1
  H  H28  1  0.84800000  0.95000000  0.70260000  1
  H  H29  1  0.34800000  0.95000000  0.79740000  1
  H  H30  1  0.50700000  0.95500000  0.61810000  1
  H  H31  1  0.00700000  0.95500000  0.88190000  1
  C  C32  1  0.50320000  0.01170000  0.63523000  1
  C  C33  1  0.00320000  0.01170000  0.86477000  1
  C  C34  1  0.38340000  0.03040000  0.68220000  1
  C  C35  1  0.88340000  0.03040000  0.81780000  1
  C  C36  1  0.22230000  0.05440000  0.20602000  1
  C  C37  1  0.72230000  0.05440000  0.29398000  1
  C  C38  1  0.75770000  0.05780000  0.56863000  1
  C  C39  1  0.25770000  0.05780000  0.93137000  1
  C  C40  1  0.37850000  0.07860000  0.09941000  1
  C  C41  1  0.87850000  0.07860000  0.40059000  1
  C  C42  1  0.71020000  0.08250000  0.23026000  1
  C  C43  1  0.21020000  0.08250000  0.26974000  1
  C  C44  1  0.61710000  0.08390000  0.61347000  1
  C  C45  1  0.11710000  0.08390000  0.88653000  1
  C  C46  1  0.31920000  0.11390000  0.16386000  1
  C  C47  1  0.81920000  0.11390000  0.33614000  1
  C  C48  1  0.37110000  0.12520000  0.70645000  1
  C  C49  1  0.87110000  0.12520000  0.79355000  1
  C  C50  1  0.78070000  0.17090000  0.20850000  1
  C  C51  1  0.28070000  0.17090000  0.29150000  1
  C  C52  1  0.59920000  0.17850000  0.63583000  1
  C  C53  1  0.09920000  0.17850000  0.86417000  1
  C  C54  1  0.47700000  0.19940000  0.68166000  1
  C  C55  1  0.97700000  0.19940000  0.81834000  1
  C  C56  1  0.37980000  0.20450000  0.18540000  1
  C  C57  1  0.87980000  0.20450000  0.31460000  1
  C  C58  1  0.35920000  0.23430000  0.24836000  1
  C  C59  1  0.85920000  0.23430000  0.25164000  1
  C  C60  1  0.45510000  0.30370000  0.70234000  1
  C  C61  1  0.95510000  0.30370000  0.79766000  1
  C  C62  1  0.92440000  0.33380000  0.23280000  1
  C  C63  1  0.42440000  0.33380000  0.26720000  1
  C  C64  1  0.57560000  0.66620000  0.73280000  1
  C  C65  1  0.07560000  0.66620000  0.76720000  1
  C  C66  1  0.04490000  0.69630000  0.20234000  1
  C  C67  1  0.54490000  0.69630000  0.29766000  1
  C  C68  1  0.14080000  0.76570000  0.74836000  1
  C  C69  1  0.64080000  0.76570000  0.75164000  1
  C  C70  1  0.12020000  0.79550000  0.68540000  1
  C  C71  1  0.62020000  0.79550000  0.81460000  1
  C  C72  1  0.02300000  0.80060000  0.18166000  1
  C  C73  1  0.52300000  0.80060000  0.31834000  1
  C  C74  1  0.90080000  0.82150000  0.13583000  1
  C  C75  1  0.40080000  0.82150000  0.36417000  1
  C  C76  1  0.71930000  0.82910000  0.70850000  1
  C  C77  1  0.21930000  0.82910000  0.79150000  1
  C  C78  1  0.12890000  0.87480000  0.20645000  1
  C  C79  1  0.62890000  0.87480000  0.29355000  1
  C  C80  1  0.18080000  0.88610000  0.66386000  1
  C  C81  1  0.68080000  0.88610000  0.83614000  1
  C  C82  1  0.88290000  0.91610000  0.11347000  1
  C  C83  1  0.38290000  0.91610000  0.38653000  1
  C  C84  1  0.78980000  0.91750000  0.73026000  1
  C  C85  1  0.28980000  0.91750000  0.76974000  1
  C  C86  1  0.12150000  0.92140000  0.59941000  1
  C  C87  1  0.62150000  0.92140000  0.90059000  1
  C  C88  1  0.74230000  0.94220000  0.06863000  1
  C  C89  1  0.24230000  0.94220000  0.43137000  1
  C  C90  1  0.27770000  0.94560000  0.70602000  1
  C  C91  1  0.77770000  0.94560000  0.79398000  1
  C  C92  1  0.11660000  0.96960000  0.18220000  1
  C  C93  1  0.61660000  0.96960000  0.31780000  1
  C  C94  1  0.99680000  0.98830000  0.13523000  1
  C  C95  1  0.49680000  0.98830000  0.36477000  1
  O  O96  1  0.15240000  0.00871000  0.58525000  1
  O  O97  1  0.65240000  0.00871000  0.91475000  1
  O  O98  1  0.74820000  0.02640000  0.04508000  1
  O  O99  1  0.24820000  0.02640000  0.45492000  1
  O  O100  1  0.87540000  0.12031000  0.55995000  1
  O  O101  1  0.37540000  0.12031000  0.94005000  1
  O  O102  1  0.46660000  0.13753000  0.06571000  1
  O  O103  1  0.96660000  0.13753000  0.43429000  1
  O  O104  1  0.89440000  0.32234000  0.74428000  1
  O  O105  1  0.39440000  0.32234000  0.75572000  1
  O  O106  1  0.92370000  0.35661000  0.17299000  1
  O  O107  1  0.42370000  0.35661000  0.32701000  1
  O  O108  1  0.50560000  0.36576000  0.66004000  1
  O  O109  1  0.00560000  0.36576000  0.83996000  1
  O  O110  1  0.46900000  0.39240000  0.22383000  1
  O  O111  1  0.96900000  0.39240000  0.27617000  1
  O  O112  1  0.03100000  0.60760000  0.72383000  1
  O  O113  1  0.53100000  0.60760000  0.77617000  1
  O  O114  1  0.99440000  0.63424000  0.16004000  1
  O  O115  1  0.49440000  0.63424000  0.33996000  1
  O  O116  1  0.57630000  0.64339000  0.67299000  1
  O  O117  1  0.07630000  0.64339000  0.82701000  1
  O  O118  1  0.60560000  0.67766000  0.24428000  1
  O  O119  1  0.10560000  0.67766000  0.25572000  1
  O  O120  1  0.03340000  0.86247000  0.56571000  1
  O  O121  1  0.53340000  0.86247000  0.93429000  1
  O  O122  1  0.62460000  0.87969000  0.05995000  1
  O  O123  1  0.12460000  0.87969000  0.44005000  1
  O  O124  1  0.75180000  0.97360000  0.54508000  1
  O  O125  1  0.25180000  0.97360000  0.95492000  1
  O  O126  1  0.34760000  0.99129000  0.08525000  1
  O  O127  1  0.84760000  0.99129000  0.41475000  1
