# generated using pymatgen
data_EuPH7C8NO8
_symmetry_space_group_name_H-M   'P 1'
_cell_length_a   9.75580000
_cell_length_b   10.55490000
_cell_length_c   15.64553957
_cell_angle_alpha   90.00000000
_cell_angle_beta   102.74421183
_cell_angle_gamma   90.00000000
_symmetry_Int_Tables_number   1
_chemical_formula_structural   EuPH7C8NO8
_chemical_formula_sum   'Eu4 P4 H28 C32 N4 O32'
_cell_volume   1571.35586462
_cell_formula_units_Z   4
loop_
 _symmetry_equiv_pos_site_id
 _symmetry_equiv_pos_as_xyz
  1  'x, y, z'
loop_
 _atom_site_type_symbol
 _atom_site_label
 _atom_site_symmetry_multiplicity
 _atom_site_fract_x
 _atom_site_fract_y
 _atom_site_fract_z
 _atom_site_occupancy
  Eu  Eu0  1  0.71388000  0.38824000  0.89335000  1
  Eu  Eu1  1  0.21388000  0.11176000  0.39335000  1
  Eu  Eu2  1  0.78612000  0.88824000  0.60665000  1
  Eu  Eu3  1  0.28612000  0.61176000  0.10665000  1
  P  P4  1  0.15572000  0.85644000  0.23056000  1
  P  P5  1  0.65572000  0.64356000  0.73056000  1
  P  P6  1  0.34428000  0.35644000  0.26944000  1
  P  P7  1  0.84428000  0.14356000  0.76944000  1
  H  H8  1  0.84290000  0.83520000  0.88470000  1
  H  H9  1  0.34290000  0.66480000  0.38470000  1
  H  H10  1  0.00390000  0.86360000  0.09430000  1
  H  H11  1  0.50390000  0.63640000  0.59430000  1
  H  H12  1  0.00050000  0.99320000  0.14260000  1
  H  H13  1  0.50050000  0.50680000  0.64260000  1
  H  H14  1  0.70040000  0.75860000  0.97290000  1
  H  H15  1  0.20040000  0.74140000  0.47290000  1
  H  H16  1  0.02760000  0.83570000  0.31380000  1
  H  H17  1  0.52760000  0.66430000  0.81380000  1
  H  H18  1  0.17280000  0.39360000  0.56540000  1
  H  H19  1  0.67280000  0.10640000  0.06540000  1
  H  H20  1  0.61740000  0.89440000  0.06400000  1
  H  H21  1  0.11740000  0.60560000  0.56400000  1
  H  H22  1  0.88260000  0.39440000  0.43600000  1
  H  H23  1  0.38260000  0.10560000  0.93600000  1
  H  H24  1  0.32720000  0.89360000  0.93460000  1
  H  H25  1  0.82720000  0.60640000  0.43460000  1
  H  H26  1  0.47240000  0.33570000  0.18620000  1
  H  H27  1  0.97240000  0.16430000  0.68620000  1
  H  H28  1  0.79960000  0.25860000  0.52710000  1
  H  H29  1  0.29960000  0.24140000  0.02710000  1
  H  H30  1  0.49950000  0.49320000  0.35740000  1
  H  H31  1  0.99950000  0.00680000  0.85740000  1
  H  H32  1  0.49610000  0.36360000  0.40570000  1
  H  H33  1  0.99610000  0.13640000  0.90570000  1
  H  H34  1  0.65710000  0.33520000  0.61530000  1
  H  H35  1  0.15710000  0.16480000  0.11530000  1
  C  C36  1  0.06220000  0.92760000  0.12920000  1
  C  C37  1  0.56220000  0.57240000  0.62920000  1
  C  C38  1  0.46020000  0.96730000  0.53190000  1
  C  C39  1  0.96020000  0.53270000  0.03190000  1
  C  C40  1  0.34430000  0.48350000  0.42320000  1
  C  C41  1  0.84430000  0.01650000  0.92320000  1
  C  C42  1  0.80900000  0.89020000  0.92160000  1
  C  C43  1  0.30900000  0.60980000  0.42160000  1
  C  C44  1  0.72370000  0.84410000  0.97420000  1
  C  C45  1  0.22370000  0.65590000  0.47420000  1
  C  C46  1  0.20770000  0.44900000  0.52910000  1
  C  C47  1  0.70770000  0.05100000  0.02910000  1
  C  C48  1  0.67420000  0.92480000  0.02800000  1
  C  C49  1  0.17420000  0.57520000  0.52800000  1
  C  C50  1  0.98930000  0.94010000  0.47160000  1
  C  C51  1  0.48930000  0.55990000  0.97160000  1
  C  C52  1  0.51070000  0.44010000  0.02840000  1
  C  C53  1  0.01070000  0.05990000  0.52840000  1
  C  C54  1  0.82580000  0.42480000  0.47200000  1
  C  C55  1  0.32580000  0.07520000  0.97200000  1
  C  C56  1  0.29230000  0.94900000  0.97090000  1
  C  C57  1  0.79230000  0.55100000  0.47090000  1
  C  C58  1  0.77630000  0.34410000  0.52580000  1
  C  C59  1  0.27630000  0.15590000  0.02580000  1
  C  C60  1  0.69100000  0.39020000  0.57840000  1
  C  C61  1  0.19100000  0.10980000  0.07840000  1
  C  C62  1  0.15570000  0.98350000  0.07680000  1
  C  C63  1  0.65570000  0.51650000  0.57680000  1
  C  C64  1  0.03980000  0.46730000  0.96810000  1
  C  C65  1  0.53980000  0.03270000  0.46810000  1
  C  C66  1  0.43780000  0.42760000  0.37080000  1
  C  C67  1  0.93780000  0.07240000  0.87080000  1
  N  N68  1  0.29170000  0.40530000  0.47730000  1
  N  N69  1  0.79170000  0.09470000  0.97730000  1
  N  N70  1  0.20830000  0.90530000  0.02270000  1
  N  N71  1  0.70830000  0.59470000  0.52270000  1
  O  O72  1  0.25051000  0.25430000  0.28961000  1
  O  O73  1  0.75051000  0.24570000  0.78961000  1
  O  O74  1  0.22952000  0.95930000  0.28972000  1
  O  O75  1  0.72952000  0.54070000  0.78972000  1
  O  O76  1  0.53280000  0.90920000  0.59460000  1
  O  O77  1  0.03280000  0.59080000  0.09460000  1
  O  O78  1  0.32620000  0.28340000  0.48220000  1
  O  O79  1  0.82620000  0.21660000  0.98220000  1
  O  O80  1  0.32950000  0.98040000  0.51530000  1
  O  O81  1  0.82950000  0.51960000  0.01530000  1
  O  O82  1  0.03560000  0.79570000  0.27020000  1
  O  O83  1  0.53560000  0.70430000  0.77020000  1
  O  O84  1  0.04661000  0.94080000  0.40711000  1
  O  O85  1  0.54661000  0.55920000  0.90711000  1
  O  O86  1  0.58030000  0.35180000  0.00680000  1
  O  O87  1  0.08030000  0.14820000  0.50680000  1
  O  O88  1  0.91970000  0.85180000  0.49320000  1
  O  O89  1  0.41970000  0.64820000  0.99320000  1
  O  O90  1  0.45339000  0.44080000  0.09289000  1
  O  O91  1  0.95339000  0.05920000  0.59289000  1
  O  O92  1  0.46440000  0.29570000  0.22980000  1
  O  O93  1  0.96440000  0.20430000  0.72980000  1
  O  O94  1  0.17050000  0.48040000  0.98470000  1
  O  O95  1  0.67050000  0.01960000  0.48470000  1
  O  O96  1  0.17380000  0.78340000  0.01780000  1
  O  O97  1  0.67380000  0.71660000  0.51780000  1
  O  O98  1  0.96720000  0.40920000  0.90540000  1
  O  O99  1  0.46720000  0.09080000  0.40540000  1
  O  O100  1  0.27048000  0.45930000  0.21028000  1
  O  O101  1  0.77048000  0.04070000  0.71028000  1
  O  O102  1  0.24949000  0.75430000  0.21039000  1
  O  O103  1  0.74949000  0.74570000  0.71039000  1
