# generated using pymatgen
data_Eu3H40(C16O5)4
_symmetry_space_group_name_H-M   'P 1'
_cell_length_a   14.14590000
_cell_length_b   15.47240000
_cell_length_c   24.04000000
_cell_angle_alpha   90.18800000
_cell_angle_beta   90.00000000
_cell_angle_gamma   90.00000000
_symmetry_Int_Tables_number   1
_chemical_formula_structural   Eu3H40(C16O5)4
_chemical_formula_sum   'Eu6 H80 C128 O40'
_cell_volume   5261.63107223
_cell_formula_units_Z   2
loop_
 _symmetry_equiv_pos_site_id
 _symmetry_equiv_pos_as_xyz
  1  'x, y, z'
loop_
 _atom_site_type_symbol
 _atom_site_label
 _atom_site_symmetry_multiplicity
 _atom_site_fract_x
 _atom_site_fract_y
 _atom_site_fract_z
 _atom_site_occupancy
  Eu  Eu0  1  0.00000000  0.00000000  0.00000000  1
  Eu  Eu1  1  0.62632000  0.94398000  0.00845000  1
  Eu  Eu2  1  0.12632000  0.55602000  0.49155000  1
  Eu  Eu3  1  0.50000000  0.50000000  0.50000000  1
  Eu  Eu4  1  0.87368000  0.44398000  0.50845000  1
  Eu  Eu5  1  0.37368000  0.05602000  0.99155000  1
  H  H6  1  0.96030000  0.94990000  0.73690000  1
  H  H7  1  0.06690000  0.93080000  0.71830000  1
  H  H8  1  0.96130000  0.91970000  0.84250000  1
  H  H9  1  0.32980000  0.91250000  0.87510000  1
  H  H10  1  0.67210000  0.91160000  0.15010000  1
  H  H11  1  0.95510000  0.90530000  0.15590000  1
  H  H12  1  0.98110000  0.90340000  0.67860000  1
  H  H13  1  0.01910000  0.90220000  0.29830000  1
  H  H14  1  0.06580000  0.89760000  0.23780000  1
  H  H15  1  0.25170000  0.86440000  0.11110000  1
  H  H16  1  0.26200000  0.86240000  0.79670000  1
  H  H17  1  0.66430000  0.84310000  0.23610000  1
  H  H18  1  0.10020000  0.83290000  0.28540000  1
  H  H19  1  0.71340000  0.80580000  0.88280000  1
  H  H20  1  0.51800000  0.80330000  0.15600000  1
  H  H21  1  0.22230000  0.78540000  0.69790000  1
  H  H22  1  0.19100000  0.77540000  0.18210000  1
  H  H23  1  0.58890000  0.76420000  0.72500000  1
  H  H24  1  0.04210000  0.76260000  0.18680000  1
  H  H25  1  0.55490000  0.75070000  0.85620000  1
  H  H26  1  0.05490000  0.74930000  0.64380000  1
  H  H27  1  0.54210000  0.73740000  0.31320000  1
  H  H28  1  0.08890000  0.73580000  0.77500000  1
  H  H29  1  0.69100000  0.72460000  0.31790000  1
  H  H30  1  0.72230000  0.71460000  0.80210000  1
  H  H31  1  0.01800000  0.69670000  0.34400000  1
  H  H32  1  0.21340000  0.69420000  0.61720000  1
  H  H33  1  0.60020000  0.66710000  0.21460000  1
  H  H34  1  0.16430000  0.65690000  0.26390000  1
  H  H35  1  0.76200000  0.63760000  0.70330000  1
  H  H36  1  0.75170000  0.63560000  0.38890000  1
  H  H37  1  0.56580000  0.60240000  0.26220000  1
  H  H38  1  0.51910000  0.59780000  0.20170000  1
  H  H39  1  0.48110000  0.59660000  0.82140000  1
  H  H40  1  0.45510000  0.59470000  0.34410000  1
  H  H41  1  0.17210000  0.58840000  0.34990000  1
  H  H42  1  0.82980000  0.58750000  0.62490000  1
  H  H43  1  0.46130000  0.58030000  0.65750000  1
  H  H44  1  0.56690000  0.56920000  0.78170000  1
  H  H45  1  0.46030000  0.55010000  0.76310000  1
  H  H46  1  0.53970000  0.44990000  0.23690000  1
  H  H47  1  0.43310000  0.43080000  0.21830000  1
  H  H48  1  0.53870000  0.41970000  0.34250000  1
  H  H49  1  0.17020000  0.41250000  0.37510000  1
  H  H50  1  0.82790000  0.41160000  0.65010000  1
  H  H51  1  0.54490000  0.40530000  0.65590000  1
  H  H52  1  0.51890000  0.40340000  0.17860000  1
  H  H53  1  0.48090000  0.40220000  0.79830000  1
  H  H54  1  0.43420000  0.39760000  0.73780000  1
  H  H55  1  0.24830000  0.36440000  0.61110000  1
  H  H56  1  0.23800000  0.36240000  0.29670000  1
  H  H57  1  0.83570000  0.34310000  0.73610000  1
  H  H58  1  0.39980000  0.33290000  0.78540000  1
  H  H59  1  0.78660000  0.30580000  0.38280000  1
  H  H60  1  0.98200000  0.30330000  0.65600000  1
  H  H61  1  0.27770000  0.28540000  0.19790000  1
  H  H62  1  0.30900000  0.27540000  0.68210000  1
  H  H63  1  0.91110000  0.26420000  0.22500000  1
  H  H64  1  0.45790000  0.26260000  0.68680000  1
  H  H65  1  0.94510000  0.25070000  0.35620000  1
  H  H66  1  0.44510000  0.24930000  0.14380000  1
  H  H67  1  0.95790000  0.23740000  0.81320000  1
  H  H68  1  0.41110000  0.23580000  0.27500000  1
  H  H69  1  0.80900000  0.22460000  0.81790000  1
  H  H70  1  0.77770000  0.21460000  0.30210000  1
  H  H71  1  0.48200000  0.19670000  0.84400000  1
  H  H72  1  0.28660000  0.19420000  0.11720000  1
  H  H73  1  0.89980000  0.16710000  0.71460000  1
  H  H74  1  0.33570000  0.15690000  0.76390000  1
  H  H75  1  0.73800000  0.13760000  0.20330000  1
  H  H76  1  0.74830000  0.13560000  0.88890000  1
  H  H77  1  0.93420000  0.10240000  0.76220000  1
  H  H78  1  0.98090000  0.09780000  0.70170000  1
  H  H79  1  0.01890000  0.09660000  0.32140000  1
  H  H80  1  0.04490000  0.09470000  0.84410000  1
  H  H81  1  0.32790000  0.08840000  0.84990000  1
  H  H82  1  0.67020000  0.08750000  0.12490000  1
  H  H83  1  0.03870000  0.08030000  0.15750000  1
  H  H84  1  0.93310000  0.06920000  0.28170000  1
  H  H85  1  0.03970000  0.05010000  0.26310000  1
  C  C86  1  0.81810000  0.96430000  0.09150000  1
  C  C87  1  0.82490000  0.92600000  0.92220000  1
  C  C88  1  0.81320000  0.91650000  0.14480000  1
  C  C89  1  0.00180000  0.90920000  0.71740000  1
  C  C90  1  0.72890000  0.89510000  0.16830000  1
  C  C91  1  0.42750000  0.89430000  0.08070000  1
  C  C92  1  0.89560000  0.88960000  0.17120000  1
  C  C93  1  0.91280000  0.87860000  0.83540000  1
  C  C94  1  0.49160000  0.87160000  0.92500000  1
  C  C95  1  0.83470000  0.86920000  0.87230000  1
  C  C96  1  0.36060000  0.86850000  0.85420000  1
  C  C97  1  0.04570000  0.86360000  0.27000000  1
  C  C98  1  0.72340000  0.84990000  0.21790000  1
  C  C99  1  0.89280000  0.84150000  0.21820000  1
  C  C100  1  0.32130000  0.83980000  0.80820000  1
  C  C101  1  0.39190000  0.83850000  0.12730000  1
  C  C102  1  0.44670000  0.83570000  0.87300000  1
  C  C103  1  0.29320000  0.83280000  0.13450000  1
  C  C104  1  0.91540000  0.82760000  0.79050000  1
  C  C105  1  0.99740000  0.82390000  0.74490000  1
  C  C106  1  0.80240000  0.81580000  0.24020000  1
  C  C107  1  0.76630000  0.81090000  0.85870000  1
  C  C108  1  0.45170000  0.79780000  0.16130000  1
  C  C109  1  0.96960000  0.79730000  0.25160000  1
  C  C110  1  0.25720000  0.78010000  0.17640000  1
  C  C111  1  0.36620000  0.77540000  0.77540000  1
  C  C112  1  0.49570000  0.77240000  0.84390000  1
  C  C113  1  0.84280000  0.76970000  0.77790000  1
  C  C114  1  0.82050000  0.76560000  0.28980000  1
  C  C115  1  0.95210000  0.75750000  0.70480000  1
  C  C116  1  0.76940000  0.75650000  0.81010000  1
  C  C117  1  0.91630000  0.75360000  0.29480000  1
  C  C118  1  0.41630000  0.74640000  0.20520000  1
  C  C119  1  0.26940000  0.74350000  0.68990000  1
  C  C120  1  0.45210000  0.74250000  0.79520000  1
  C  C121  1  0.32050000  0.73440000  0.21020000  1
  C  C122  1  0.34280000  0.73030000  0.72210000  1
  C  C123  1  0.99570000  0.72760000  0.65610000  1
  C  C124  1  0.86620000  0.72460000  0.72460000  1
  C  C125  1  0.75720000  0.71990000  0.32360000  1
  C  C126  1  0.46960000  0.70270000  0.24840000  1
  C  C127  1  0.95170000  0.70220000  0.33870000  1
  C  C128  1  0.26630000  0.68910000  0.64130000  1
  C  C129  1  0.30240000  0.68420000  0.25980000  1
  C  C130  1  0.49740000  0.67610000  0.75510000  1
  C  C131  1  0.41540000  0.67240000  0.70950000  1
  C  C132  1  0.79320000  0.66720000  0.36550000  1
  C  C133  1  0.94670000  0.66430000  0.62700000  1
  C  C134  1  0.89190000  0.66150000  0.37270000  1
  C  C135  1  0.82130000  0.66020000  0.69180000  1
  C  C136  1  0.39280000  0.65850000  0.28180000  1
  C  C137  1  0.22340000  0.65010000  0.28210000  1
  C  C138  1  0.54570000  0.63640000  0.23000000  1
  C  C139  1  0.86060000  0.63150000  0.64580000  1
  C  C140  1  0.33470000  0.63080000  0.62770000  1
  C  C141  1  0.99160000  0.62840000  0.57500000  1
  C  C142  1  0.41280000  0.62140000  0.66460000  1
  C  C143  1  0.39560000  0.61040000  0.32880000  1
  C  C144  1  0.92750000  0.60570000  0.41930000  1
  C  C145  1  0.22890000  0.60490000  0.33170000  1
  C  C146  1  0.50180000  0.59080000  0.78260000  1
  C  C147  1  0.31320000  0.58350000  0.35520000  1
  C  C148  1  0.32490000  0.57400000  0.57780000  1
  C  C149  1  0.31810000  0.53570000  0.40850000  1
  C  C150  1  0.68190000  0.46430000  0.59150000  1
  C  C151  1  0.67510000  0.42600000  0.42220000  1
  C  C152  1  0.68680000  0.41650000  0.64480000  1
  C  C153  1  0.49820000  0.40920000  0.21740000  1
  C  C154  1  0.77110000  0.39510000  0.66830000  1
  C  C155  1  0.07250000  0.39430000  0.58070000  1
  C  C156  1  0.60440000  0.38960000  0.67120000  1
  C  C157  1  0.58720000  0.37860000  0.33540000  1
  C  C158  1  0.00840000  0.37160000  0.42500000  1
  C  C159  1  0.66530000  0.36920000  0.37230000  1
  C  C160  1  0.13940000  0.36850000  0.35420000  1
  C  C161  1  0.45430000  0.36360000  0.77000000  1
  C  C162  1  0.77660000  0.34990000  0.71790000  1
  C  C163  1  0.60720000  0.34150000  0.71820000  1
  C  C164  1  0.17870000  0.33980000  0.30820000  1
  C  C165  1  0.10810000  0.33850000  0.62730000  1
  C  C166  1  0.05330000  0.33570000  0.37300000  1
  C  C167  1  0.20680000  0.33280000  0.63450000  1
  C  C168  1  0.58460000  0.32760000  0.29050000  1
  C  C169  1  0.50260000  0.32390000  0.24490000  1
  C  C170  1  0.69760000  0.31580000  0.74020000  1
  C  C171  1  0.73370000  0.31090000  0.35870000  1
  C  C172  1  0.04830000  0.29780000  0.66130000  1
  C  C173  1  0.53040000  0.29730000  0.75160000  1
  C  C174  1  0.24280000  0.28010000  0.67640000  1
  C  C175  1  0.13380000  0.27540000  0.27540000  1
  C  C176  1  0.00430000  0.27240000  0.34390000  1
  C  C177  1  0.65720000  0.26970000  0.27790000  1
  C  C178  1  0.67950000  0.26560000  0.78980000  1
  C  C179  1  0.54790000  0.25750000  0.20480000  1
  C  C180  1  0.73060000  0.25650000  0.31010000  1
  C  C181  1  0.58370000  0.25360000  0.79480000  1
  C  C182  1  0.08370000  0.24640000  0.70520000  1
  C  C183  1  0.23060000  0.24350000  0.18990000  1
  C  C184  1  0.04790000  0.24250000  0.29520000  1
  C  C185  1  0.17950000  0.23440000  0.71020000  1
  C  C186  1  0.15720000  0.23030000  0.22210000  1
  C  C187  1  0.50430000  0.22760000  0.15610000  1
  C  C188  1  0.63380000  0.22460000  0.22460000  1
  C  C189  1  0.74280000  0.21990000  0.82360000  1
  C  C190  1  0.03040000  0.20270000  0.74840000  1
  C  C191  1  0.54830000  0.20220000  0.83870000  1
  C  C192  1  0.23370000  0.18910000  0.14130000  1
  C  C193  1  0.19760000  0.18420000  0.75980000  1
  C  C194  1  0.00260000  0.17610000  0.25510000  1
  C  C195  1  0.08460000  0.17240000  0.20950000  1
  C  C196  1  0.70680000  0.16720000  0.86550000  1
  C  C197  1  0.55330000  0.16430000  0.12700000  1
  C  C198  1  0.60810000  0.16150000  0.87270000  1
  C  C199  1  0.67870000  0.16020000  0.19180000  1
  C  C200  1  0.10720000  0.15850000  0.78180000  1
  C  C201  1  0.27660000  0.15010000  0.78210000  1
  C  C202  1  0.95430000  0.13640000  0.73000000  1
  C  C203  1  0.63940000  0.13150000  0.14580000  1
  C  C204  1  0.16530000  0.13080000  0.12770000  1
  C  C205  1  0.50840000  0.12840000  0.07500000  1
  C  C206  1  0.08720000  0.12140000  0.16460000  1
  C  C207  1  0.10440000  0.11040000  0.82880000  1
  C  C208  1  0.57250000  0.10570000  0.91930000  1
  C  C209  1  0.27110000  0.10490000  0.83170000  1
  C  C210  1  0.99820000  0.09080000  0.28260000  1
  C  C211  1  0.18680000  0.08350000  0.85520000  1
  C  C212  1  0.17510000  0.07400000  0.07780000  1
  C  C213  1  0.18190000  0.03570000  0.90850000  1
  O  O214  1  0.74240000  0.98910000  0.07000000  1
  O  O215  1  0.88780000  0.97750000  0.93430000  1
  O  O216  1  0.89750000  0.97680000  0.06850000  1
  O  O217  1  0.37220000  0.94980000  0.05990000  1
  O  O218  1  0.45800000  0.93740000  0.95120000  1
  O  O219  1  0.75660000  0.91430000  0.95320000  1
  O  O220  1  0.51520000  0.88350000  0.06830000  1
  O  O221  1  0.56800000  0.83900000  0.94360000  1
  O  O222  1  0.07830000  0.79730000  0.76730000  1
  O  O223  1  0.50950000  0.76360000  0.28260000  1
  O  O224  1  0.00950000  0.73640000  0.21740000  1
  O  O225  1  0.57830000  0.70270000  0.73270000  1
  O  O226  1  0.06800000  0.66100000  0.55640000  1
  O  O227  1  0.01520000  0.61650000  0.43170000  1
  O  O228  1  0.25660000  0.58570000  0.54680000  1
  O  O229  1  0.95800000  0.56260000  0.54880000  1
  O  O230  1  0.87220000  0.55020000  0.44010000  1
  O  O231  1  0.39750000  0.52320000  0.43150000  1
  O  O232  1  0.38780000  0.52250000  0.56570000  1
  O  O233  1  0.24240000  0.51090000  0.43000000  1
  O  O234  1  0.75760000  0.48910000  0.57000000  1
  O  O235  1  0.61220000  0.47750000  0.43430000  1
  O  O236  1  0.60250000  0.47680000  0.56850000  1
  O  O237  1  0.12780000  0.44980000  0.55990000  1
  O  O238  1  0.04200000  0.43740000  0.45120000  1
  O  O239  1  0.74340000  0.41430000  0.45320000  1
  O  O240  1  0.98480000  0.38350000  0.56830000  1
  O  O241  1  0.93200000  0.33900000  0.44360000  1
  O  O242  1  0.42170000  0.29730000  0.26730000  1
  O  O243  1  0.99050000  0.26360000  0.78260000  1
  O  O244  1  0.49050000  0.23640000  0.71740000  1
  O  O245  1  0.92170000  0.20270000  0.23270000  1
  O  O246  1  0.43200000  0.16100000  0.05640000  1
  O  O247  1  0.48480000  0.11650000  0.93170000  1
  O  O248  1  0.24340000  0.08570000  0.04680000  1
  O  O249  1  0.54200000  0.06260000  0.04880000  1
  O  O250  1  0.62780000  0.05020000  0.94010000  1
  O  O251  1  0.10250000  0.02320000  0.93150000  1
  O  O252  1  0.11220000  0.02250000  0.06570000  1
  O  O253  1  0.25760000  0.01090000  0.93000000  1
