# generated using pymatgen
data_Cd5H14C28(N2O11)2
_symmetry_space_group_name_H-M   'P 1'
_cell_length_a   11.23200000
_cell_length_b   11.36100000
_cell_length_c   17.07200000
_cell_angle_alpha   97.95000000
_cell_angle_beta   108.88900000
_cell_angle_gamma   91.40900000
_symmetry_Int_Tables_number   1
_chemical_formula_structural   Cd5H14C28(N2O11)2
_chemical_formula_sum   'Cd10 H28 C56 N8 O44'
_cell_volume   2035.77434560
_cell_formula_units_Z   2
loop_
 _symmetry_equiv_pos_site_id
 _symmetry_equiv_pos_as_xyz
  1  'x, y, z'
loop_
 _atom_site_type_symbol
 _atom_site_label
 _atom_site_symmetry_multiplicity
 _atom_site_fract_x
 _atom_site_fract_y
 _atom_site_fract_z
 _atom_site_occupancy
  Cd  Cd0  1  0.08487000  0.22571000  0.46080000  1
  Cd  Cd1  1  0.17571000  0.79405000  0.95610000  1
  Cd  Cd2  1  0.18250000  0.86696000  0.75010000  1
  Cd  Cd3  1  0.21501000  0.71430000  0.54860000  1
  Cd  Cd4  1  0.25023000  0.08766000  0.95624000  1
  Cd  Cd5  1  0.74977000  0.91234000  0.04376000  1
  Cd  Cd6  1  0.78499000  0.28570000  0.45140000  1
  Cd  Cd7  1  0.81750000  0.13304000  0.24990000  1
  Cd  Cd8  1  0.82429000  0.20595000  0.04390000  1
  Cd  Cd9  1  0.91513000  0.77429000  0.53920000  1
  H  H10  1  0.00330000  0.20310000  0.78130000  1
  H  H11  1  0.01530000  0.82920000  0.36110000  1
  H  H12  1  0.06680000  0.39370000  0.85880000  1
  H  H13  1  0.10060000  0.33380000  0.11920000  1
  H  H14  1  0.12260000  0.92360000  0.59220000  1
  H  H15  1  0.16780000  0.37380000  0.26370000  1
  H  H16  1  0.35490000  0.89160000  0.90500000  1
  H  H17  1  0.35670000  0.49780000  0.63580000  1
  H  H18  1  0.36340000  0.38230000  0.84880000  1
  H  H19  1  0.37450000  0.03180000  0.36190000  1
  H  H20  1  0.37510000  0.33090000  0.33760000  1
  H  H21  1  0.42570000  0.94320000  0.14010000  1
  H  H22  1  0.43740000  0.53030000  0.78300000  1
  H  H23  1  0.49550000  0.02900000  0.71600000  1
  H  H24  1  0.50450000  0.97100000  0.28400000  1
  H  H25  1  0.56260000  0.46970000  0.21700000  1
  H  H26  1  0.57430000  0.05680000  0.85990000  1
  H  H27  1  0.62490000  0.66910000  0.66240000  1
  H  H28  1  0.62550000  0.96820000  0.63810000  1
  H  H29  1  0.63660000  0.61770000  0.15120000  1
  H  H30  1  0.64330000  0.50220000  0.36420000  1
  H  H31  1  0.64510000  0.10840000  0.09500000  1
  H  H32  1  0.83220000  0.62620000  0.73630000  1
  H  H33  1  0.87740000  0.07640000  0.40780000  1
  H  H34  1  0.89940000  0.66620000  0.88080000  1
  H  H35  1  0.93320000  0.60630000  0.14120000  1
  H  H36  1  0.98470000  0.17080000  0.63890000  1
  H  H37  1  0.99670000  0.79690000  0.21870000  1
  C  C38  1  0.00070000  0.75260000  0.33090000  1
  C  C39  1  0.01570000  0.26650000  0.75500000  1
  C  C40  1  0.03770000  0.02320000  0.12310000  1
  C  C41  1  0.03960000  0.45670000  0.67630000  1
  C  C42  1  0.04530000  0.55310000  0.62550000  1
  C  C43  1  0.05090000  0.38200000  0.80120000  1
  C  C44  1  0.06190000  0.47690000  0.76200000  1
  C  C45  1  0.10060000  0.59700000  0.80690000  1
  C  C46  1  0.12920000  0.07810000  0.30940000  1
  C  C47  1  0.16940000  0.00580000  0.17580000  1
  C  C48  1  0.18350000  0.32310000  0.14990000  1
  C  C49  1  0.21030000  0.02750000  0.25830000  1
  C  C50  1  0.22170000  0.34430000  0.23550000  1
  C  C51  1  0.25290000  0.11760000  0.60070000  1
  C  C52  1  0.28990000  0.15420000  0.78950000  1
  C  C53  1  0.29830000  0.23370000  0.66030000  1
  C  C54  1  0.32360000  0.25170000  0.74770000  1
  C  C55  1  0.34300000  0.01660000  0.30370000  1
  C  C56  1  0.34660000  0.31960000  0.27940000  1
  C  C57  1  0.35560000  0.43590000  0.66600000  1
  C  C58  1  0.36040000  0.36620000  0.79330000  1
  C  C59  1  0.37350000  0.96620000  0.17120000  1
  C  C60  1  0.38470000  0.26620000  0.15060000  1
  C  C61  1  0.39340000  0.45910000  0.75270000  1
  C  C62  1  0.42030000  0.98270000  0.25700000  1
  C  C63  1  0.42710000  0.27850000  0.23620000  1
  C  C64  1  0.44180000  0.74770000  0.71460000  1
  C  C65  1  0.46260000  0.23540000  0.09370000  1
  C  C66  1  0.53740000  0.76460000  0.90630000  1
  C  C67  1  0.55820000  0.25230000  0.28540000  1
  C  C68  1  0.57290000  0.72150000  0.76380000  1
  C  C69  1  0.57970000  0.01730000  0.74300000  1
  C  C70  1  0.60660000  0.54090000  0.24730000  1
  C  C71  1  0.61530000  0.73380000  0.84940000  1
  C  C72  1  0.62650000  0.03380000  0.82880000  1
  C  C73  1  0.63960000  0.63380000  0.20670000  1
  C  C74  1  0.64440000  0.56410000  0.33400000  1
  C  C75  1  0.65340000  0.68040000  0.72060000  1
  C  C76  1  0.65700000  0.98340000  0.69630000  1
  C  C77  1  0.67640000  0.74830000  0.25230000  1
  C  C78  1  0.70170000  0.76630000  0.33970000  1
  C  C79  1  0.71010000  0.84580000  0.21050000  1
  C  C80  1  0.74710000  0.88240000  0.39930000  1
  C  C81  1  0.77830000  0.65570000  0.76450000  1
  C  C82  1  0.78970000  0.97250000  0.74170000  1
  C  C83  1  0.81650000  0.67690000  0.85010000  1
  C  C84  1  0.83060000  0.99420000  0.82420000  1
  C  C85  1  0.87080000  0.92190000  0.69060000  1
  C  C86  1  0.89940000  0.40300000  0.19310000  1
  C  C87  1  0.93810000  0.52310000  0.23800000  1
  C  C88  1  0.94910000  0.61800000  0.19880000  1
  C  C89  1  0.95470000  0.44690000  0.37450000  1
  C  C90  1  0.96040000  0.54330000  0.32370000  1
  C  C91  1  0.96230000  0.97680000  0.87690000  1
  C  C92  1  0.98430000  0.73350000  0.24500000  1
  C  C93  1  0.99930000  0.24740000  0.66910000  1
  N  N94  1  0.00540000  0.34370000  0.63150000  1
  N  N95  1  0.25410000  0.98310000  0.13280000  1
  N  N96  1  0.26080000  0.28830000  0.11070000  1
  N  N97  1  0.31740000  0.32470000  0.62520000  1
  N  N98  1  0.68260000  0.67530000  0.37480000  1
  N  N99  1  0.73920000  0.71170000  0.88930000  1
  N  N100  1  0.74590000  0.01690000  0.86720000  1
  N  N101  1  0.99460000  0.65630000  0.36850000  1
  O  O102  1  0.00980000  0.12140000  0.10600000  1
  O  O103  1  0.01380000  0.66940000  0.44960000  1
  O  O104  1  0.01440000  0.06370000  0.27100000  1
  O  O105  1  0.03230000  0.07580000  0.89950000  1
  O  O106  1  0.05980000  0.39550000  0.40370000  1
  O  O107  1  0.11070000  0.84580000  0.60840000  1
  O  O108  1  0.11110000  0.67980000  0.76880000  1
  O  O109  1  0.11370000  0.61410000  0.88810000  1
  O  O110  1  0.13890000  0.09800000  0.56430000  1
  O  O111  1  0.14060000  0.56960000  0.60860000  1
  O  O112  1  0.18550000  0.13370000  0.38140000  1
  O  O113  1  0.20970000  0.97040000  0.04720000  1
  O  O114  1  0.22510000  0.27240000  0.02780000  1
  O  O115  1  0.25640000  0.05130000  0.74430000  1
  O  O116  1  0.26530000  0.90660000  0.88940000  1
  O  O117  1  0.28870000  0.30890000  0.53940000  1
  O  O118  1  0.29730000  0.18320000  0.86260000  1
  O  O119  1  0.33470000  0.05010000  0.59400000  1
  O  O120  1  0.37460000  0.79300000  0.75420000  1
  O  O121  1  0.40890000  0.71380000  0.63850000  1
  O  O122  1  0.45360000  0.12650000  0.05830000  1
  O  O123  1  0.47110000  0.68310000  0.91330000  1
  O  O124  1  0.52890000  0.31690000  0.08670000  1
  O  O125  1  0.54640000  0.87350000  0.94170000  1
  O  O126  1  0.59110000  0.28620000  0.36150000  1
  O  O127  1  0.62540000  0.20700000  0.24580000  1
  O  O128  1  0.66530000  0.94990000  0.40600000  1
  O  O129  1  0.70270000  0.81680000  0.13740000  1
  O  O130  1  0.71130000  0.69110000  0.46060000  1
  O  O131  1  0.73470000  0.09340000  0.11060000  1
  O  O132  1  0.74360000  0.94870000  0.25570000  1
  O  O133  1  0.77490000  0.72760000  0.97220000  1
  O  O134  1  0.79030000  0.02960000  0.95280000  1
  O  O135  1  0.81450000  0.86630000  0.61860000  1
  O  O136  1  0.85940000  0.43040000  0.39140000  1
  O  O137  1  0.86110000  0.90200000  0.43570000  1
  O  O138  1  0.88630000  0.38590000  0.11190000  1
  O  O139  1  0.88890000  0.32020000  0.23120000  1
  O  O140  1  0.88930000  0.15420000  0.39160000  1
  O  O141  1  0.94020000  0.60450000  0.59630000  1
  O  O142  1  0.96770000  0.92420000  0.10050000  1
  O  O143  1  0.98560000  0.93630000  0.72900000  1
  O  O144  1  0.98620000  0.33060000  0.55040000  1
  O  O145  1  0.99020000  0.87860000  0.89400000  1
