# generated using pymatgen
data_AgH4(C2N3)2
_symmetry_space_group_name_H-M   'P 1'
_cell_length_a   9.15300000
_cell_length_b   10.66800000
_cell_length_c   17.89500000
_cell_angle_alpha   90.00000000
_cell_angle_beta   90.00000000
_cell_angle_gamma   96.39500000
_symmetry_Int_Tables_number   1
_chemical_formula_structural   AgH4(C2N3)2
_chemical_formula_sum   'Ag8 H32 C32 N48'
_cell_volume   1736.47043823
_cell_formula_units_Z   8
loop_
 _symmetry_equiv_pos_site_id
 _symmetry_equiv_pos_as_xyz
  1  'x, y, z'
loop_
 _atom_site_type_symbol
 _atom_site_label
 _atom_site_symmetry_multiplicity
 _atom_site_fract_x
 _atom_site_fract_y
 _atom_site_fract_z
 _atom_site_occupancy
  Ag  Ag0  1  0.95235000  0.82649000  0.45099000  1
  Ag  Ag1  1  0.86925000  0.52519000  0.90979000  1
  Ag  Ag2  1  0.63075000  0.97481000  0.40979000  1
  Ag  Ag3  1  0.54765000  0.67351000  0.95099000  1
  Ag  Ag4  1  0.45235000  0.32649000  0.04901000  1
  Ag  Ag5  1  0.36925000  0.02519000  0.59021000  1
  Ag  Ag6  1  0.13075000  0.47481000  0.09021000  1
  Ag  Ag7  1  0.04765000  0.17351000  0.54901000  1
  H  H8  1  0.95710000  0.02010000  0.70070000  1
  H  H9  1  0.95530000  0.70370000  0.74410000  1
  H  H10  1  0.94250000  0.18030000  0.10580000  1
  H  H11  1  0.91610000  0.64700000  0.27430000  1
  H  H12  1  0.88240000  0.45340000  0.63770000  1
  H  H13  1  0.82250000  0.72250000  0.09130000  1
  H  H14  1  0.81140000  0.26770000  0.43210000  1
  H  H15  1  0.75580000  0.54620000  0.43610000  1
  H  H16  1  0.74420000  0.95380000  0.93610000  1
  H  H17  1  0.68860000  0.23230000  0.93210000  1
  H  H18  1  0.67750000  0.77750000  0.59130000  1
  H  H19  1  0.61760000  0.04660000  0.13770000  1
  H  H20  1  0.58390000  0.85300000  0.77430000  1
  H  H21  1  0.55750000  0.31970000  0.60580000  1
  H  H22  1  0.54470000  0.79630000  0.24410000  1
  H  H23  1  0.54290000  0.47990000  0.20070000  1
  H  H24  1  0.45710000  0.52010000  0.79930000  1
  H  H25  1  0.45530000  0.20370000  0.75590000  1
  H  H26  1  0.44250000  0.68030000  0.39420000  1
  H  H27  1  0.41610000  0.14700000  0.22570000  1
  H  H28  1  0.38240000  0.95340000  0.86230000  1
  H  H29  1  0.32250000  0.22250000  0.40870000  1
  H  H30  1  0.31140000  0.76770000  0.06790000  1
  H  H31  1  0.25580000  0.04620000  0.06390000  1
  H  H32  1  0.24420000  0.45380000  0.56390000  1
  H  H33  1  0.18860000  0.73230000  0.56790000  1
  H  H34  1  0.17750000  0.27750000  0.90870000  1
  H  H35  1  0.11760000  0.54660000  0.36230000  1
  H  H36  1  0.08390000  0.35300000  0.72570000  1
  H  H37  1  0.05750000  0.81970000  0.89420000  1
  H  H38  1  0.04470000  0.29630000  0.25590000  1
  H  H39  1  0.04290000  0.97990000  0.29930000  1
  C  C40  1  0.90100000  0.21680000  0.06490000  1
  C  C41  1  0.90070000  0.97960000  0.66270000  1
  C  C42  1  0.87120000  0.49850000  0.59400000  1
  C  C43  1  0.86760000  0.72370000  0.76470000  1
  C  C44  1  0.83750000  0.69390000  0.28150000  1
  C  C45  1  0.80180000  0.54890000  0.48250000  1
  C  C46  1  0.76070000  0.24520000  0.96880000  1
  C  C47  1  0.75370000  0.65410000  0.10220000  1
  C  C48  1  0.74630000  0.84590000  0.60220000  1
  C  C49  1  0.73930000  0.25480000  0.46880000  1
  C  C50  1  0.69820000  0.95110000  0.98250000  1
  C  C51  1  0.66250000  0.80610000  0.78150000  1
  C  C52  1  0.63240000  0.77630000  0.26470000  1
  C  C53  1  0.62880000  0.00150000  0.09400000  1
  C  C54  1  0.59930000  0.52040000  0.16270000  1
  C  C55  1  0.59900000  0.28320000  0.56490000  1
  C  C56  1  0.40100000  0.71680000  0.43510000  1
  C  C57  1  0.40070000  0.47960000  0.83730000  1
  C  C58  1  0.37120000  0.99850000  0.90600000  1
  C  C59  1  0.36760000  0.22370000  0.73530000  1
  C  C60  1  0.33750000  0.19390000  0.21850000  1
  C  C61  1  0.30180000  0.04890000  0.01750000  1
  C  C62  1  0.26070000  0.74520000  0.53120000  1
  C  C63  1  0.25370000  0.15410000  0.39780000  1
  C  C64  1  0.24630000  0.34590000  0.89780000  1
  C  C65  1  0.23930000  0.75480000  0.03120000  1
  C  C66  1  0.19820000  0.45110000  0.51750000  1
  C  C67  1  0.16250000  0.30610000  0.71850000  1
  C  C68  1  0.13240000  0.27630000  0.23530000  1
  C  C69  1  0.12880000  0.50150000  0.40600000  1
  C  C70  1  0.09930000  0.02040000  0.33730000  1
  C  C71  1  0.09900000  0.78320000  0.93510000  1
  N  N72  1  0.94470000  0.32770000  0.03720000  1
  N  N73  1  0.93130000  0.61240000  0.58090000  1
  N  N74  1  0.90070000  0.01420000  0.59350000  1
  N  N75  1  0.88880000  0.64310000  0.50860000  1
  N  N76  1  0.85550000  0.34480000  0.97560000  1
  N  N77  1  0.82170000  0.76870000  0.33780000  1
  N  N78  1  0.80920000  0.67910000  0.82670000  1
  N  N79  1  0.80460000  0.87410000  0.67060000  1
  N  N80  1  0.80180000  0.92960000  0.55420000  1
  N  N81  1  0.78910000  0.45540000  0.53380000  1
  N  N82  1  0.78510000  0.16330000  0.02430000  1
  N  N83  1  0.77880000  0.80430000  0.73540000  1
  N  N84  1  0.72120000  0.69570000  0.23540000  1
  N  N85  1  0.71490000  0.33670000  0.52430000  1
  N  N86  1  0.71090000  0.04460000  0.03380000  1
  N  N87  1  0.69820000  0.57040000  0.05420000  1
  N  N88  1  0.69540000  0.62590000  0.17060000  1
  N  N89  1  0.69080000  0.82090000  0.32670000  1
  N  N90  1  0.67830000  0.73130000  0.83780000  1
  N  N91  1  0.64450000  0.15520000  0.47560000  1
  N  N92  1  0.61120000  0.85690000  0.00860000  1
  N  N93  1  0.59930000  0.48580000  0.09350000  1
  N  N94  1  0.56870000  0.88760000  0.08090000  1
  N  N95  1  0.55530000  0.17230000  0.53720000  1
  N  N96  1  0.44470000  0.82770000  0.46280000  1
  N  N97  1  0.43130000  0.11240000  0.91910000  1
  N  N98  1  0.40070000  0.51420000  0.90650000  1
  N  N99  1  0.38880000  0.14310000  0.99140000  1
  N  N100  1  0.35550000  0.84480000  0.52440000  1
  N  N101  1  0.32170000  0.26870000  0.16220000  1
  N  N102  1  0.30920000  0.17910000  0.67330000  1
  N  N103  1  0.30460000  0.37410000  0.82940000  1
  N  N104  1  0.30180000  0.42960000  0.94580000  1
  N  N105  1  0.28910000  0.95540000  0.96620000  1
  N  N106  1  0.28510000  0.66330000  0.47570000  1
  N  N107  1  0.27880000  0.30430000  0.76460000  1
  N  N108  1  0.22120000  0.19570000  0.26460000  1
  N  N109  1  0.21490000  0.83670000  0.97570000  1
  N  N110  1  0.21090000  0.54460000  0.46620000  1
  N  N111  1  0.19820000  0.07040000  0.44580000  1
  N  N112  1  0.19540000  0.12590000  0.32940000  1
  N  N113  1  0.19080000  0.32090000  0.17330000  1
  N  N114  1  0.17830000  0.23130000  0.66220000  1
  N  N115  1  0.14450000  0.65520000  0.02440000  1
  N  N116  1  0.11120000  0.35690000  0.49140000  1
  N  N117  1  0.09930000  0.98580000  0.40650000  1
  N  N118  1  0.06870000  0.38760000  0.41910000  1
  N  N119  1  0.05530000  0.67230000  0.96280000  1
