# generated using pymatgen
data_CuH16(C5N2)4
_symmetry_space_group_name_H-M   'P 1'
_cell_length_a   7.72880000
_cell_length_b   12.84702502
_cell_length_c   12.84702502
_cell_angle_alpha   84.80870138
_cell_angle_beta   72.49427114
_cell_angle_gamma   72.49427114
_symmetry_Int_Tables_number   1
_chemical_formula_structural   CuH16(C5N2)4
_chemical_formula_sum   'Cu2 H32 C40 N16'
_cell_volume   1160.18921563
_cell_formula_units_Z   2
loop_
 _symmetry_equiv_pos_site_id
 _symmetry_equiv_pos_as_xyz
  1  'x, y, z'
loop_
 _atom_site_type_symbol
 _atom_site_label
 _atom_site_symmetry_multiplicity
 _atom_site_fract_x
 _atom_site_fract_y
 _atom_site_fract_z
 _atom_site_occupancy
  C  C0  1  0.30250000  0.94750000  0.04170000  1
  C  C1  1  0.70830000  0.44750000  0.54170000  1
  C  C2  1  0.34970000  0.54960000  0.34480000  1
  C  C3  1  0.75590000  0.04960000  0.84480000  1
  C  C4  1  0.09100000  0.84440000  0.04980000  1
  C  C5  1  0.01480000  0.34440000  0.54980000  1
  C  C6  1  0.21860000  0.60240000  0.29060000  1
  C  C7  1  0.88840000  0.10240000  0.79060000  1
  C  C8  1  0.22030000  0.89650000  0.98850000  1
  C  C9  1  0.89470000  0.39650000  0.48850000  1
  C  C10  1  0.67900000  0.70940000  0.10240000  1
  C  C11  1  0.50920000  0.20940000  0.60240000  1
  C  C12  1  0.85920000  0.54980000  0.15560000  1
  C  C13  1  0.43540000  0.04980000  0.65560000  1
  C  C14  1  0.60070000  0.65520000  0.04960000  1
  C  C15  1  0.69450000  0.15520000  0.54960000  1
  C  C16  1  0.65580000  0.54170000  0.05250000  1
  C  C17  1  0.75000000  0.04170000  0.55250000  1
  C  C18  1  0.79120000  0.48850000  0.10350000  1
  C  C19  1  0.61680000  0.98850000  0.60350000  1
  C  C20  1  0.20880000  0.51150000  0.89650000  1
  C  C21  1  0.38320000  0.01150000  0.39650000  1
  C  C22  1  0.34420000  0.45830000  0.94750000  1
  C  C23  1  0.25000000  0.95830000  0.44750000  1
  C  C24  1  0.39930000  0.34480000  0.95040000  1
  C  C25  1  0.30550000  0.84480000  0.45040000  1
  C  C26  1  0.14080000  0.45020000  0.84440000  1
  C  C27  1  0.56460000  0.95020000  0.34440000  1
  C  C28  1  0.32100000  0.29060000  0.89760000  1
  C  C29  1  0.49080000  0.79060000  0.39760000  1
  C  C30  1  0.77970000  0.10350000  0.01150000  1
  C  C31  1  0.10530000  0.60350000  0.51150000  1
  C  C32  1  0.78140000  0.39760000  0.70940000  1
  C  C33  1  0.11160000  0.89760000  0.20940000  1
  C  C34  1  0.90900000  0.15560000  0.95020000  1
  C  C35  1  0.98520000  0.65560000  0.45020000  1
  C  C36  1  0.65030000  0.45040000  0.65520000  1
  C  C37  1  0.24410000  0.95040000  0.15520000  1
  C  C38  1  0.69750000  0.05250000  0.95830000  1
  C  C39  1  0.29170000  0.55250000  0.45830000  1
  Cu  Cu40  1  0.87500000  0.75000000  0.25000000  1
  Cu  Cu41  1  0.12500000  0.25000000  0.75000000  1
  H  H42  1  0.64160000  0.78680000  0.10040000  1
  H  H43  1  0.47120000  0.28680000  0.60040000  1
  H  H44  1  0.03820000  0.80690000  0.01270000  1
  H  H45  1  0.14220000  0.30690000  0.51270000  1
  H  H46  1  0.47610000  0.51230000  0.30570000  1
  H  H47  1  0.70590000  0.01230000  0.80570000  1
  H  H48  1  0.25800000  0.60040000  0.21320000  1
  H  H49  1  0.92840000  0.10040000  0.71320000  1
  H  H50  1  0.25210000  0.89710000  0.91110000  1
  H  H51  1  0.93970000  0.39710000  0.41110000  1
  H  H52  1  0.51160000  0.69430000  0.01230000  1
  H  H53  1  0.78180000  0.19430000  0.51230000  1
  H  H54  1  0.94910000  0.51270000  0.19310000  1
  H  H55  1  0.34510000  0.01270000  0.69310000  1
  H  H56  1  0.83680000  0.41110000  0.10290000  1
  H  H57  1  0.64920000  0.91110000  0.60290000  1
  H  H58  1  0.16320000  0.58890000  0.89710000  1
  H  H59  1  0.35080000  0.08890000  0.39710000  1
  H  H60  1  0.05090000  0.48730000  0.80690000  1
  H  H61  1  0.65490000  0.98730000  0.30690000  1
  H  H62  1  0.48840000  0.30570000  0.98770000  1
  H  H63  1  0.21820000  0.80570000  0.48770000  1
  H  H64  1  0.74790000  0.10290000  0.08890000  1
  H  H65  1  0.06030000  0.60290000  0.58890000  1
  H  H66  1  0.74200000  0.39960000  0.78680000  1
  H  H67  1  0.07160000  0.89960000  0.28680000  1
  H  H68  1  0.52390000  0.48770000  0.69430000  1
  H  H69  1  0.29410000  0.98770000  0.19430000  1
  H  H70  1  0.96180000  0.19310000  0.98730000  1
  H  H71  1  0.85780000  0.69310000  0.48730000  1
  H  H72  1  0.35840000  0.21320000  0.89960000  1
  H  H73  1  0.52880000  0.71320000  0.39960000  1
  N  N74  1  0.03919000  0.65611000  0.34071000  1
  N  N75  1  0.96399000  0.15611000  0.84071000  1
  N  N76  1  0.58437000  0.49934000  0.47712000  1
  N  N77  1  0.43917000  0.99934000  0.97712000  1
  N  N78  1  0.80470000  0.65929000  0.15611000  1
  N  N79  1  0.37990000  0.15929000  0.65611000  1
  N  N80  1  0.41629000  0.52288000  0.99934000  1
  N  N81  1  0.06149000  0.02288000  0.49934000  1
  N  N82  1  0.58371000  0.47712000  0.00066000  1
  N  N83  1  0.93851000  0.97712000  0.50066000  1
  N  N84  1  0.19530000  0.34071000  0.84389000  1
  N  N85  1  0.62010000  0.84071000  0.34389000  1
  N  N86  1  0.41563000  0.50066000  0.52288000  1
  N  N87  1  0.56083000  0.00066000  0.02288000  1
  N  N88  1  0.96081000  0.34389000  0.65929000  1
  N  N89  1  0.03601000  0.84389000  0.15929000  1
