# generated using pymatgen
data_NiH24C30(NO3)2
_symmetry_space_group_name_H-M   'P 1'
_cell_length_a   16.90250000
_cell_length_b   18.79290000
_cell_length_c   18.79282372
_cell_angle_alpha   111.41836546
_cell_angle_beta   107.44557594
_cell_angle_gamma   107.44600000
_symmetry_Int_Tables_number   1
_chemical_formula_structural   NiH24C30(NO3)2
_chemical_formula_sum   'Ni6 H144 C180 N12 O36'
_cell_volume   4705.06566094
_cell_formula_units_Z   6
loop_
 _symmetry_equiv_pos_site_id
 _symmetry_equiv_pos_as_xyz
  1  'x, y, z'
loop_
 _atom_site_type_symbol
 _atom_site_label
 _atom_site_symmetry_multiplicity
 _atom_site_fract_x
 _atom_site_fract_y
 _atom_site_fract_z
 _atom_site_occupancy
  Ni  Ni0  1  0.36893000  0.61893000  0.23786000  1
  Ni  Ni1  1  0.86893000  0.23786000  0.61893000  1
  Ni  Ni2  1  0.75000000  0.61893000  0.38107000  1
  Ni  Ni3  1  0.25000000  0.38107000  0.61893000  1
  Ni  Ni4  1  0.13107000  0.76214000  0.38107000  1
  Ni  Ni5  1  0.63107000  0.38107000  0.76214000  1
  H  H6  1  0.21810000  0.66790000  0.21530000  1
  H  H7  1  0.57950000  0.35910000  0.56860000  1
  H  H8  1  0.69840000  0.40690000  0.66780000  1
  H  H9  1  0.04280000  0.19240000  0.00860000  1
  H  H10  1  0.18380000  0.06040000  0.14930000  1
  H  H11  1  0.79730000  0.12400000  0.75780000  1
  H  H12  1  0.85040000  0.81620000  0.80760000  1
  H  H13  1  0.71810000  0.21530000  0.66790000  1
  H  H14  1  0.93290000  0.37570000  0.87880000  1
  H  H15  1  0.58900000  0.27230000  0.53390000  1
  H  H16  1  0.22790000  0.95440000  0.17250000  1
  H  H17  1  0.43290000  0.87880000  0.37570000  1
  H  H18  1  0.65190000  0.55160000  0.58770000  1
  H  H19  1  0.44280000  0.49690000  0.37570000  1
  H  H20  1  0.80110000  0.66940000  0.73240000  1
  H  H21  1  0.51090000  0.79050000  0.43140000  1
  H  H22  1  0.55510000  0.73840000  0.46610000  1
  H  H23  1  0.06420000  0.41230000  0.96390000  1
  H  H24  1  0.03450000  0.85070000  0.91110000  1
  H  H25  1  0.06870000  0.26760000  0.93700000  1
  H  H26  1  0.21350000  0.45830000  0.06460000  1
  H  H27  1  0.96580000  0.00860000  0.81620000  1
  H  H28  1  0.56420000  0.96390000  0.41230000  1
  H  H29  1  0.29730000  0.75780000  0.12400000  1
  H  H30  1  0.91100000  0.46610000  0.72770000  1
  H  H31  1  0.12340000  0.08890000  0.93960000  1
  H  H32  1  0.53060000  0.73910000  0.33220000  1
  H  H33  1  0.86830000  0.93700000  0.66940000  1
  H  H34  1  0.32670000  0.36620000  0.12400000  1
  H  H35  1  0.80160000  0.33220000  0.59310000  1
  H  H36  1  0.75520000  0.60630000  0.54170000  1
  H  H37  1  0.55020000  0.54740000  0.33210000  1
  H  H38  1  0.01090000  0.43140000  0.79050000  1
  H  H39  1  0.27210000  0.82750000  0.04560000  1
  H  H40  1  0.27350000  0.21810000  0.04560000  1
  H  H41  1  0.85110000  0.06460000  0.60630000  1
  H  H42  1  0.71350000  0.06460000  0.45830000  1
  H  H43  1  0.44460000  0.21810000  0.17250000  1
  H  H44  1  0.05540000  0.82750000  0.78190000  1
  H  H45  1  0.92050000  0.43140000  0.64090000  1
  H  H46  1  0.49720000  0.54740000  0.21530000  1
  H  H47  1  0.35110000  0.60630000  0.06460000  1
  H  H48  1  0.03060000  0.33220000  0.73910000  1
  H  H49  1  0.53950000  0.36620000  0.24220000  1
  H  H50  1  0.56870000  0.93700000  0.26760000  1
  H  H51  1  0.70850000  0.73910000  0.40690000  1
  H  H52  1  0.46550000  0.08890000  0.14930000  1
  H  H53  1  0.05510000  0.46610000  0.73840000  1
  H  H54  1  0.96050000  0.75780000  0.63380000  1
  H  H55  1  0.89970000  0.96390000  0.55160000  1
  H  H56  1  0.54280000  0.00860000  0.19240000  1
  H  H57  1  0.74480000  0.45830000  0.39370000  1
  H  H58  1  0.69890000  0.26760000  0.33060000  1
  H  H59  1  0.31620000  0.85070000  0.93960000  1
  H  H60  1  0.84810000  0.41230000  0.44840000  1
  H  H61  1  0.68330000  0.73840000  0.27230000  1
  H  H62  1  0.77960000  0.79050000  0.35910000  1
  H  H63  1  0.36830000  0.66940000  0.93700000  1
  H  H64  1  0.55410000  0.49690000  0.12120000  1
  H  H65  1  0.39970000  0.55160000  0.96390000  1
  H  H66  1  0.94590000  0.87880000  0.50310000  1
  H  H67  1  0.22650000  0.95440000  0.78190000  1
  H  H68  1  0.18330000  0.27230000  0.73840000  1
  H  H69  1  0.94280000  0.37570000  0.49690000  1
  H  H70  1  0.99720000  0.21530000  0.54740000  1
  H  H71  1  0.46580000  0.81620000  0.00860000  1
  H  H72  1  0.82670000  0.12400000  0.36620000  1
  H  H73  1  0.37660000  0.06040000  0.91110000  1
  H  H74  1  0.64960000  0.19240000  0.18380000  1
  H  H75  1  0.20850000  0.40690000  0.73910000  1
  H  H76  1  0.27960000  0.35910000  0.79050000  1
  H  H77  1  0.94980000  0.66790000  0.45260000  1
  H  H78  1  0.05020000  0.33210000  0.54740000  1
  H  H79  1  0.72040000  0.64090000  0.20950000  1
  H  H80  1  0.79150000  0.59310000  0.26090000  1
  H  H81  1  0.35040000  0.80760000  0.81620000  1
  H  H82  1  0.62340000  0.93960000  0.08890000  1
  H  H83  1  0.17330000  0.87600000  0.63380000  1
  H  H84  1  0.53420000  0.18380000  0.99140000  1
  H  H85  1  0.00280000  0.78470000  0.45260000  1
  H  H86  1  0.05720000  0.62430000  0.50310000  1
  H  H87  1  0.81670000  0.72770000  0.26160000  1
  H  H88  1  0.77350000  0.04560000  0.21810000  1
  H  H89  1  0.05410000  0.12120000  0.49690000  1
  H  H90  1  0.60030000  0.44840000  0.03610000  1
  H  H91  1  0.44590000  0.50310000  0.87880000  1
  H  H92  1  0.63170000  0.33060000  0.06300000  1
  H  H93  1  0.22040000  0.20950000  0.64090000  1
  H  H94  1  0.31670000  0.26160000  0.72770000  1
  H  H95  1  0.15190000  0.58770000  0.55160000  1
  H  H96  1  0.68380000  0.14930000  0.06040000  1
  H  H97  1  0.30110000  0.73240000  0.66940000  1
  H  H98  1  0.25520000  0.54170000  0.60630000  1
  H  H99  1  0.45720000  0.99140000  0.80760000  1
  H  H100  1  0.10030000  0.03610000  0.44840000  1
  H  H101  1  0.03950000  0.24220000  0.36620000  1
  H  H102  1  0.94490000  0.53390000  0.26160000  1
  H  H103  1  0.53450000  0.91110000  0.85070000  1
  H  H104  1  0.29150000  0.26090000  0.59310000  1
  H  H105  1  0.43130000  0.06300000  0.73240000  1
  H  H106  1  0.46050000  0.63380000  0.75780000  1
  H  H107  1  0.96940000  0.66780000  0.26090000  1
  H  H108  1  0.64890000  0.39370000  0.93540000  1
  H  H109  1  0.50280000  0.45260000  0.78470000  1
  H  H110  1  0.07950000  0.56860000  0.35910000  1
  H  H111  1  0.94460000  0.17250000  0.21810000  1
  H  H112  1  0.55540000  0.78190000  0.82750000  1
  H  H113  1  0.28650000  0.93540000  0.54170000  1
  H  H114  1  0.14890000  0.93540000  0.39370000  1
  H  H115  1  0.72650000  0.78190000  0.95440000  1
  H  H116  1  0.72790000  0.17250000  0.95440000  1
  H  H117  1  0.98910000  0.56860000  0.20950000  1
  H  H118  1  0.44980000  0.45260000  0.66790000  1
  H  H119  1  0.24480000  0.39370000  0.45830000  1
  H  H120  1  0.19840000  0.66780000  0.40690000  1
  H  H121  1  0.67330000  0.63380000  0.87600000  1
  H  H122  1  0.13170000  0.06300000  0.33060000  1
  H  H123  1  0.46940000  0.26090000  0.66780000  1
  H  H124  1  0.87660000  0.91110000  0.06040000  1
  H  H125  1  0.08900000  0.53390000  0.27230000  1
  H  H126  1  0.70270000  0.24220000  0.87600000  1
  H  H127  1  0.43580000  0.03610000  0.58770000  1
  H  H128  1  0.03420000  0.99140000  0.18380000  1
  H  H129  1  0.78650000  0.54170000  0.93540000  1
  H  H130  1  0.93130000  0.73240000  0.06300000  1
  H  H131  1  0.96550000  0.14930000  0.08890000  1
  H  H132  1  0.93580000  0.58770000  0.03610000  1
  H  H133  1  0.44490000  0.26160000  0.53390000  1
  H  H134  1  0.48910000  0.20950000  0.56860000  1
  H  H135  1  0.19890000  0.33060000  0.26760000  1
  H  H136  1  0.55720000  0.50310000  0.62430000  1
  H  H137  1  0.34810000  0.44840000  0.41230000  1
  H  H138  1  0.56710000  0.12120000  0.62430000  1
  H  H139  1  0.77210000  0.04560000  0.82750000  1
  H  H140  1  0.41100000  0.72770000  0.46610000  1
  H  H141  1  0.06710000  0.62430000  0.12120000  1
  H  H142  1  0.28190000  0.78470000  0.33210000  1
  H  H143  1  0.14960000  0.18380000  0.19240000  1
  H  H144  1  0.20270000  0.87600000  0.24220000  1
  H  H145  1  0.81620000  0.93960000  0.85070000  1
  H  H146  1  0.95720000  0.80760000  0.99140000  1
  H  H147  1  0.30160000  0.59310000  0.33220000  1
  H  H148  1  0.42050000  0.64090000  0.43140000  1
  H  H149  1  0.78190000  0.33210000  0.78470000  1
  C  C150  1  0.58287000  0.31287000  0.58084000  1
  C  C151  1  0.18373000  0.22032000  0.17667000  1
  C  C152  1  0.59574000  0.10685000  0.58837000  1
  C  C153  1  0.78629000  0.69193000  0.77794000  1
  C  C154  1  0.90426000  0.41163000  0.89315000  1
  C  C155  1  0.04769000  0.51355000  0.03152000  1
  C  C156  1  0.16724000  0.90977000  0.15035000  1
  C  C157  1  0.09413000  0.89148000  0.07591000  1
  C  C158  1  0.18593000  0.61375000  0.16364000  1
  C  C159  1  0.54769000  0.03152000  0.51355000  1
  C  C160  1  0.99294000  0.17667000  0.95635000  1
  C  C161  1  0.84789000  0.13664000  0.80783000  1
  C  C162  1  0.29286000  0.45790000  0.24668000  1
  C  C163  1  0.53414000  0.51797000  0.48645000  1
  C  C164  1  0.26473000  0.36303000  0.20196000  1
  C  C165  1  0.15491000  0.03569000  0.08854000  1
  C  C166  1  0.10789000  0.94709000  0.03668000  1
  C  C167  1  0.68593000  0.16364000  0.61375000  1
  C  C168  1  0.09398000  0.46538000  0.01636000  1
  C  C169  1  0.50203000  0.73203000  0.41916000  1
  C  C170  1  0.62860000  0.55098000  0.53462000  1
  C  C171  1  0.20265000  0.18443000  0.10852000  1
  C  C172  1  0.00835000  0.22206000  0.91399000  1
  C  C173  1  0.50737000  0.51848000  0.41163000  1
  C  C174  1  0.93723000  0.20196000  0.83893000  1
  C  C175  1  0.18383000  0.49358000  0.07681000  1
  C  C176  1  0.16080000  0.08959000  0.05291000  1
  C  C177  1  0.06637000  0.91146000  0.94715000  1
  C  C178  1  0.59398000  0.01636000  0.46538000  1
  C  C179  1  0.28875000  0.32881000  0.13664000  1
  C  C180  1  0.11922000  0.05285000  0.96431000  1
  C  C181  1  0.07121000  0.96332000  0.91041000  1
  C  C182  1  0.95382000  0.24668000  0.78878000  1
  C  C183  1  0.25747000  0.24058000  0.09023000  1
  C  C184  1  0.96341000  0.95635000  0.77968000  1
  C  C185  1  0.69025000  0.58323000  0.50642000  1
  C  C186  1  0.57218000  0.54989000  0.38625000  1
  C  C187  1  0.68383000  0.07681000  0.49358000  1
  C  C188  1  0.01822000  0.92409000  0.81557000  1
  C  C189  1  0.45382000  0.78878000  0.24668000  1
  C  C190  1  0.34789000  0.80783000  0.13664000  1
  C  C191  1  0.90564000  0.91399000  0.69193000  1
  C  C192  1  0.91713000  0.41916000  0.68713000  1
  C  C193  1  0.43723000  0.83893000  0.20196000  1
  C  C194  1  0.33276000  0.84965000  0.09023000  1
  C  C195  1  0.01689000  0.84965000  0.75942000  1
  C  C196  1  0.90170000  0.83893000  0.63697000  1
  C  C197  1  0.00203000  0.41916000  0.73203000  1
  C  C198  1  0.50835000  0.91399000  0.22206000  1
  C  C199  1  0.95994000  0.80783000  0.67119000  1
  C  C200  1  0.83496000  0.78878000  0.54210000  1
  C  C201  1  0.40587000  0.92409000  0.10852000  1
  C  C202  1  0.89298000  0.07681000  0.58323000  1
  C  C203  1  0.47771000  0.54989000  0.16364000  1
  C  C204  1  0.39298000  0.58323000  0.07681000  1
  C  C205  1  0.49294000  0.95635000  0.17667000  1
  C  C206  1  0.48311000  0.24058000  0.15035000  1
  C  C207  1  0.79286000  0.24668000  0.45790000  1
  C  C208  1  0.39211000  0.96332000  0.05291000  1
  C  C209  1  0.43363000  0.05285000  0.08854000  1
  C  C210  1  0.54006000  0.32881000  0.19217000  1
  C  C211  1  0.92238000  0.01636000  0.55098000  1
  C  C212  1  0.34509000  0.91146000  0.96431000  1
  C  C213  1  0.42879000  0.08959000  0.03668000  1
  C  C214  1  0.80975000  0.49358000  0.41677000  1
  C  C215  1  0.76473000  0.20196000  0.36303000  1
  C  C216  1  0.51111000  0.51848000  0.10685000  1
  C  C217  1  0.71371000  0.22206000  0.30807000  1
  C  C218  1  0.48178000  0.18443000  0.07591000  1
  C  C219  1  0.42238000  0.55098000  0.01636000  1
  C  C220  1  0.73000000  0.73203000  0.31287000  1
  C  C221  1  0.87140000  0.46538000  0.44902000  1
  C  C222  1  0.97771000  0.16364000  0.54989000  1
  C  C223  1  0.33920000  0.94709000  0.91041000  1
  C  C224  1  0.38078000  0.03569000  0.94715000  1
  C  C225  1  0.59830000  0.36303000  0.16107000  1
  C  C226  1  0.48383000  0.51797000  0.03152000  1
  C  C227  1  0.66504000  0.45790000  0.21122000  1
  C  C228  1  0.78875000  0.13664000  0.32881000  1
  C  C229  1  0.68373000  0.17667000  0.22032000  1
  C  C230  1  0.98383000  0.03152000  0.51797000  1
  C  C231  1  0.92782000  0.61375000  0.45011000  1
  C  C232  1  0.29735000  0.89148000  0.81557000  1
  C  C233  1  0.24253000  0.90977000  0.75942000  1
  C  C234  1  0.96586000  0.51355000  0.48203000  1
  C  C235  1  0.00737000  0.41163000  0.51848000  1
  C  C236  1  0.40564000  0.69193000  0.91399000  1
  C  C237  1  0.01111000  0.10685000  0.51848000  1
  C  C238  1  0.53659000  0.22032000  0.04365000  1
  C  C239  1  0.23000000  0.31287000  0.73203000  1
  C  C240  1  0.77000000  0.68713000  0.26797000  1
  C  C241  1  0.46341000  0.77968000  0.95635000  1
  C  C242  1  0.98889000  0.89315000  0.48152000  1
  C  C243  1  0.59436000  0.30807000  0.08601000  1
  C  C244  1  0.99263000  0.58837000  0.48152000  1
  C  C245  1  0.03414000  0.48645000  0.51797000  1
  C  C246  1  0.75747000  0.09023000  0.24058000  1
  C  C247  1  0.70265000  0.10852000  0.18443000  1
  C  C248  1  0.07218000  0.38625000  0.54989000  1
  C  C249  1  0.01617000  0.96848000  0.48203000  1
  C  C250  1  0.31627000  0.82333000  0.77968000  1
  C  C251  1  0.21125000  0.86336000  0.67119000  1
  C  C252  1  0.33496000  0.54210000  0.78878000  1
  C  C253  1  0.51617000  0.48203000  0.96848000  1
  C  C254  1  0.40170000  0.63697000  0.83893000  1
  C  C255  1  0.61922000  0.96431000  0.05285000  1
  C  C256  1  0.66080000  0.05291000  0.08959000  1
  C  C257  1  0.02229000  0.83636000  0.45011000  1
  C  C258  1  0.12860000  0.53462000  0.55098000  1
  C  C259  1  0.27000000  0.26797000  0.68713000  1
  C  C260  1  0.57762000  0.44902000  0.98364000  1
  C  C261  1  0.51822000  0.81557000  0.92409000  1
  C  C262  1  0.28629000  0.77794000  0.69193000  1
  C  C263  1  0.48889000  0.48152000  0.89315000  1
  C  C264  1  0.23527000  0.79804000  0.63697000  1
  C  C265  1  0.19025000  0.50642000  0.58323000  1
  C  C266  1  0.57121000  0.91041000  0.96332000  1
  C  C267  1  0.65491000  0.08854000  0.03569000  1
  C  C268  1  0.07762000  0.98364000  0.44902000  1
  C  C269  1  0.45994000  0.67119000  0.80783000  1
  C  C270  1  0.56637000  0.94715000  0.91146000  1
  C  C271  1  0.60789000  0.03668000  0.94709000  1
  C  C272  1  0.20714000  0.75332000  0.54210000  1
  C  C273  1  0.51689000  0.75942000  0.84965000  1
  C  C274  1  0.50706000  0.04365000  0.82333000  1
  C  C275  1  0.60702000  0.41677000  0.92319000  1
  C  C276  1  0.52229000  0.45011000  0.83636000  1
  C  C277  1  0.10702000  0.92319000  0.41677000  1
  C  C278  1  0.59413000  0.07591000  0.89148000  1
  C  C279  1  0.16504000  0.21122000  0.45790000  1
  C  C280  1  0.04006000  0.19217000  0.32881000  1
  C  C281  1  0.49165000  0.08601000  0.77794000  1
  C  C282  1  0.99797000  0.58084000  0.26797000  1
  C  C283  1  0.09830000  0.16107000  0.36303000  1
  C  C284  1  0.98311000  0.15035000  0.24058000  1
  C  C285  1  0.66724000  0.15035000  0.90977000  1
  C  C286  1  0.56277000  0.16107000  0.79804000  1
  C  C287  1  0.08287000  0.58084000  0.31287000  1
  C  C288  1  0.09436000  0.08601000  0.30807000  1
  C  C289  1  0.65211000  0.19217000  0.86336000  1
  C  C290  1  0.54618000  0.21122000  0.75332000  1
  C  C291  1  0.98178000  0.07591000  0.18443000  1
  C  C292  1  0.31617000  0.92319000  0.50642000  1
  C  C293  1  0.42782000  0.45011000  0.61375000  1
  C  C294  1  0.30975000  0.41677000  0.49358000  1
  C  C295  1  0.03659000  0.04365000  0.22032000  1
  C  C296  1  0.74253000  0.75942000  0.90977000  1
  C  C297  1  0.04618000  0.75332000  0.21122000  1
  C  C298  1  0.92879000  0.03668000  0.08959000  1
  C  C299  1  0.88078000  0.94715000  0.03569000  1
  C  C300  1  0.71125000  0.67119000  0.86336000  1
  C  C301  1  0.40602000  0.98364000  0.53462000  1
  C  C302  1  0.93363000  0.08854000  0.05285000  1
  C  C303  1  0.83920000  0.91041000  0.94709000  1
  C  C304  1  0.81617000  0.50642000  0.92319000  1
  C  C305  1  0.06277000  0.79804000  0.16107000  1
  C  C306  1  0.49263000  0.48152000  0.58837000  1
  C  C307  1  0.99165000  0.77794000  0.08601000  1
  C  C308  1  0.79735000  0.81557000  0.89148000  1
  C  C309  1  0.37140000  0.44902000  0.46538000  1
  C  C310  1  0.49797000  0.26797000  0.58084000  1
  C  C311  1  0.90602000  0.53462000  0.98364000  1
  C  C312  1  0.31407000  0.83636000  0.38625000  1
  C  C313  1  0.89211000  0.05291000  0.96332000  1
  C  C314  1  0.84509000  0.96431000  0.91146000  1
  C  C315  1  0.73527000  0.63697000  0.79804000  1
  C  C316  1  0.46586000  0.48203000  0.51355000  1
  C  C317  1  0.70714000  0.54210000  0.75332000  1
  C  C318  1  0.15211000  0.86336000  0.19217000  1
  C  C319  1  0.00706000  0.82333000  0.04365000  1
  C  C320  1  0.45231000  0.96848000  0.48645000  1
  C  C321  1  0.81407000  0.38625000  0.83636000  1
  C  C322  1  0.90587000  0.10852000  0.92409000  1
  C  C323  1  0.83276000  0.09023000  0.84965000  1
  C  C324  1  0.95231000  0.48645000  0.96848000  1
  C  C325  1  0.09574000  0.58837000  0.10685000  1
  C  C326  1  0.21371000  0.30807000  0.22206000  1
  C  C327  1  0.40426000  0.89315000  0.41163000  1
  C  C328  1  0.81627000  0.77968000  0.82333000  1
  C  C329  1  0.41713000  0.68713000  0.41916000  1
  N  N330  1  0.22976000  0.56662000  0.14996000  1
  N  N331  1  0.72976000  0.14996000  0.56662000  1
  N  N332  1  0.66314000  0.58334000  0.43338000  1
  N  N333  1  0.42020000  0.58334000  0.14996000  1
  N  N334  1  0.92020000  0.14996000  0.58334000  1
  N  N335  1  0.83686000  0.56662000  0.41666000  1
  N  N336  1  0.16314000  0.43338000  0.58334000  1
  N  N337  1  0.07980000  0.85004000  0.41666000  1
  N  N338  1  0.57980000  0.41666000  0.85004000  1
  N  N339  1  0.33686000  0.41666000  0.56662000  1
  N  N340  1  0.27024000  0.85004000  0.43338000  1
  N  N341  1  0.77024000  0.43338000  0.85004000  1
  O  O342  1  0.66336000  0.34947000  0.65956000  1
  O  O343  1  0.73984000  0.51442000  0.70444000  1
  O  O344  1  0.34920000  0.50392000  0.23102000  1
  O  O345  1  0.38182000  0.72710000  0.23102000  1
  O  O346  1  0.88182000  0.23102000  0.72710000  1
  O  O347  1  0.50380000  0.68991000  0.34044000  1
  O  O348  1  0.83664000  0.34044000  0.65053000  1
  O  O349  1  0.03540000  0.29556000  0.80998000  1
  O  O350  1  0.53540000  0.80998000  0.29556000  1
  O  O351  1  0.77458000  0.80998000  0.51442000  1
  O  O352  1  0.76016000  0.29556000  0.48558000  1
  O  O353  1  0.00380000  0.34044000  0.68991000  1
  O  O354  1  0.68611000  0.68991000  0.34947000  1
  O  O355  1  0.84920000  0.23102000  0.50392000  1
  O  O356  1  0.84528000  0.72710000  0.49608000  1
  O  O357  1  0.65472000  0.50392000  0.27290000  1
  O  O358  1  0.27458000  0.51442000  0.80998000  1
  O  O359  1  0.18611000  0.34947000  0.68991000  1
  O  O360  1  0.81389000  0.65053000  0.31009000  1
  O  O361  1  0.72542000  0.48558000  0.19002000  1
  O  O362  1  0.34528000  0.49608000  0.72710000  1
  O  O363  1  0.15472000  0.27290000  0.50392000  1
  O  O364  1  0.15080000  0.76898000  0.49608000  1
  O  O365  1  0.31389000  0.31009000  0.65053000  1
  O  O366  1  0.99620000  0.65956000  0.31009000  1
  O  O367  1  0.23984000  0.70444000  0.51442000  1
  O  O368  1  0.22542000  0.19002000  0.48558000  1
  O  O369  1  0.46460000  0.19002000  0.70444000  1
  O  O370  1  0.96460000  0.70444000  0.19002000  1
  O  O371  1  0.16336000  0.65956000  0.34947000  1
  O  O372  1  0.49620000  0.31009000  0.65956000  1
  O  O373  1  0.11818000  0.76898000  0.27290000  1
  O  O374  1  0.61818000  0.27290000  0.76898000  1
  O  O375  1  0.65080000  0.49608000  0.76898000  1
  O  O376  1  0.26016000  0.48558000  0.29556000  1
  O  O377  1  0.33664000  0.65053000  0.34044000  1
