# generated using pymatgen
data_CoH4(C2O)4
_symmetry_space_group_name_H-M   'P 1'
_cell_length_a   11.20720000
_cell_length_b   22.30340000
_cell_length_c   22.30339054
_cell_angle_alpha   86.38082424
_cell_angle_beta   75.44889362
_cell_angle_gamma   75.44880000
_symmetry_Int_Tables_number   1
_chemical_formula_structural   CoH4(C2O)4
_chemical_formula_sum   'Co16 H64 C128 O64'
_cell_volume   5223.01590124
_cell_formula_units_Z   16
loop_
 _symmetry_equiv_pos_site_id
 _symmetry_equiv_pos_as_xyz
  1  'x, y, z'
loop_
 _atom_site_type_symbol
 _atom_site_label
 _atom_site_symmetry_multiplicity
 _atom_site_fract_x
 _atom_site_fract_y
 _atom_site_fract_z
 _atom_site_occupancy
  Co  Co0  1  0.88390000  0.27004000  0.10138000  1
  Co  Co1  1  0.09566000  0.59654000  0.86828000  1
  Co  Co2  1  0.80780000  0.13172000  0.09654000  1
  Co  Co3  1  0.65394000  0.10138000  0.22996000  1
  Co  Co4  1  0.43952000  0.09654000  0.36828000  1
  Co  Co5  1  0.01472000  0.60138000  0.72996000  1
  Co  Co6  1  0.25532000  0.22996000  0.39862000  1
  Co  Co7  1  0.96394000  0.63172000  0.59654000  1
  Co  Co8  1  0.03606000  0.36828000  0.40346000  1
  Co  Co9  1  0.74468000  0.77004000  0.60138000  1
  Co  Co10  1  0.98528000  0.39862000  0.27004000  1
  Co  Co11  1  0.56048000  0.90346000  0.63172000  1
  Co  Co12  1  0.34606000  0.89862000  0.77004000  1
  Co  Co13  1  0.19220000  0.86828000  0.90346000  1
  Co  Co14  1  0.90434000  0.40346000  0.13172000  1
  Co  Co15  1  0.11610000  0.72996000  0.89862000  1
  H  H16  1  0.55720000  0.37710000  0.42910000  1
  H  H17  1  0.32330000  0.58680000  0.65960000  1
  H  H18  1  0.30450000  0.43720000  0.66520000  1
  H  H19  1  0.39590000  0.29510000  0.54730000  1
  H  H20  1  0.56880000  0.65800000  0.37160000  1
  H  H21  1  0.90280000  0.94520000  0.03140000  1
  H  H22  1  0.49710000  0.28530000  0.42730000  1
  H  H23  1  0.66480000  0.26870000  0.24590000  1
  H  H24  1  0.34800000  0.03140000  0.55480000  1
  H  H25  1  0.93420000  0.46860000  0.94520000  1
  H  H26  1  0.08930000  0.74590000  0.73130000  1
  H  H27  1  0.76170000  0.79510000  0.04730000  1
  H  H28  1  0.07560000  0.92730000  0.71470000  1
  H  H29  1  0.05680000  0.04730000  0.70490000  1
  H  H30  1  0.59310000  0.93720000  0.16520000  1
  H  H31  1  0.59840000  0.84200000  0.12840000  1
  H  H32  1  0.79030000  0.78530000  0.92730000  1
  H  H33  1  0.75830000  0.33480000  0.93720000  1
  H  H34  1  0.58990000  0.34040000  0.08680000  1
  H  H35  1  0.43350000  0.24590000  0.23130000  1
  H  H36  1  0.12060000  0.44520000  0.53140000  1
  H  H37  1  0.01370000  0.92910000  0.62290000  1
  H  H38  1  0.80900000  0.45270000  0.79510000  1
  H  H39  1  0.94040000  0.12840000  0.65800000  1
  H  H40  1  0.03030000  0.16520000  0.56280000  1
  H  H41  1  0.43030000  0.08680000  0.15960000  1
  H  H42  1  0.98290000  0.84040000  0.58680000  1
  H  H43  1  0.72680000  0.37160000  0.84200000  1
  H  H44  1  0.82060000  0.76870000  0.74590000  1
  H  H45  1  0.63660000  0.87710000  0.92910000  1
  H  H46  1  0.43430000  0.42910000  0.12290000  1
  H  H47  1  0.71760000  0.57270000  0.78530000  1
  H  H48  1  0.28240000  0.42730000  0.21470000  1
  H  H49  1  0.56570000  0.57090000  0.87710000  1
  H  H50  1  0.36340000  0.12290000  0.07090000  1
  H  H51  1  0.17940000  0.23130000  0.25410000  1
  H  H52  1  0.27320000  0.62840000  0.15800000  1
  H  H53  1  0.01710000  0.15960000  0.41320000  1
  H  H54  1  0.56970000  0.91320000  0.84040000  1
  H  H55  1  0.96970000  0.83480000  0.43720000  1
  H  H56  1  0.05960000  0.87160000  0.34200000  1
  H  H57  1  0.19100000  0.54730000  0.20490000  1
  H  H58  1  0.98630000  0.07090000  0.37710000  1
  H  H59  1  0.87940000  0.55480000  0.46860000  1
  H  H60  1  0.56650000  0.75410000  0.76870000  1
  H  H61  1  0.41010000  0.65960000  0.91320000  1
  H  H62  1  0.24170000  0.66520000  0.06280000  1
  H  H63  1  0.20970000  0.21470000  0.07270000  1
  H  H64  1  0.40160000  0.15800000  0.87160000  1
  H  H65  1  0.40690000  0.06280000  0.83480000  1
  H  H66  1  0.94320000  0.95270000  0.29510000  1
  H  H67  1  0.92440000  0.07270000  0.28530000  1
  H  H68  1  0.23830000  0.20490000  0.95270000  1
  H  H69  1  0.91070000  0.25410000  0.26870000  1
  H  H70  1  0.06580000  0.53140000  0.05480000  1
  H  H71  1  0.65200000  0.96860000  0.44520000  1
  H  H72  1  0.33520000  0.73130000  0.75410000  1
  H  H73  1  0.50290000  0.71470000  0.57270000  1
  H  H74  1  0.09720000  0.05480000  0.96860000  1
  H  H75  1  0.43120000  0.34200000  0.62840000  1
  H  H76  1  0.60410000  0.70490000  0.45270000  1
  H  H77  1  0.69550000  0.56280000  0.33480000  1
  H  H78  1  0.67670000  0.41320000  0.34040000  1
  H  H79  1  0.44280000  0.62290000  0.57090000  1
  C  C80  1  0.65053000  0.37707000  0.33907000  1
  C  C81  1  0.76141000  0.36482000  0.22616000  1
  C  C82  1  0.36680000  0.36220000  0.60960000  1
  C  C83  1  0.58019000  0.35486000  0.39236000  1
  C  C84  1  0.68142000  0.34474000  0.28382000  1
  C  C85  1  0.29393000  0.97773000  0.66221000  1
  C  C86  1  0.54365000  0.29991000  0.39139000  1
  C  C87  1  0.95614000  0.83779000  0.97773000  1
  C  C88  1  0.64425000  0.29015000  0.28295000  1
  C  C89  1  0.29222000  0.41961000  0.63115000  1
  C  C90  1  0.57707000  0.26685000  0.33641000  1
  C  C91  1  0.11810000  0.83260000  0.79480000  1
  C  C92  1  0.34710000  0.33444000  0.56056000  1
  C  C93  1  0.84268000  0.92389000  0.05175000  1
  C  C94  1  0.87023000  0.37579000  0.01335000  1
  C  C95  1  0.54930000  0.20520000  0.33260000  1
  C  C96  1  0.84917000  0.86556000  0.03130000  1
  C  C97  1  0.74602000  0.01335000  0.12421000  1
  C  C98  1  0.74792000  0.95076000  0.10200000  1
  C  C99  1  0.21473000  0.03130000  0.63444000  1
  C  C100  1  0.26657000  0.05175000  0.57611000  1
  C  C101  1  0.08652000  0.83641000  0.73315000  1
  C  C102  1  0.75790000  0.83444000  0.06056000  1
  C  C103  1  0.89443000  0.44825000  0.92389000  1
  C  C104  1  0.19932000  0.45076000  0.60200000  1
  C  C105  1  0.84992000  0.39800000  0.95076000  1
  C  C106  1  0.65702000  0.91961000  0.13115000  1
  C  C107  1  0.25397000  0.36556000  0.53130000  1
  C  C108  1  0.07280000  0.78295000  0.70985000  1
  C  C109  1  0.93387000  0.52227000  0.83779000  1
  C  C110  1  0.66140000  0.86220000  0.10960000  1
  C  C111  1  0.06496000  0.89139000  0.70009000  1
  C  C112  1  0.62623000  0.22616000  0.13518000  1
  C  C113  1  0.09234000  0.06056000  0.66556000  1
  C  C114  1  0.19868000  0.10200000  0.54924000  1
  C  C115  1  0.88047000  0.46870000  0.86556000  1
  C  C116  1  0.25937000  0.12421000  0.48665000  1
  C  C117  1  0.91290000  0.70520000  0.83260000  1
  C  C118  1  0.11642000  0.51335000  0.62421000  1
  C  C119  1  0.18168000  0.42389000  0.55175000  1
  C  C120  1  0.78817000  0.36885000  0.91961000  1
  C  C121  1  0.22834000  0.33779000  0.47773000  1
  C  C122  1  0.03476000  0.78382000  0.65526000  1
  C  C123  1  0.52616000  0.28382000  0.15526000  1
  C  C124  1  0.02745000  0.89236000  0.64514000  1
  C  C125  1  0.02360000  0.10960000  0.63780000  1
  C  C126  1  0.07663000  0.13115000  0.58039000  1
  C  C127  1  0.76505000  0.79991000  0.89139000  1
  C  C128  1  0.81967000  0.76685000  0.83641000  1
  C  C129  1  0.81846000  0.43944000  0.83444000  1
  C  C130  1  0.52760000  0.33907000  0.12293000  1
  C  C131  1  0.01243000  0.72616000  0.63518000  1
  C  C132  1  0.43440000  0.28295000  0.20985000  1
  C  C133  1  0.01040000  0.83907000  0.62293000  1
  C  C134  1  0.77100000  0.39040000  0.86220000  1
  C  C135  1  0.35239000  0.13518000  0.27384000  1
  C  C136  1  0.43505000  0.39236000  0.14514000  1
  C  C137  1  0.34392000  0.33641000  0.23315000  1
  C  C138  1  0.78265000  0.79015000  0.78295000  1
  C  C139  1  0.67259000  0.85486000  0.89236000  1
  C  C140  1  0.25450000  0.33260000  0.29480000  1
  C  C141  1  0.34356000  0.39139000  0.20009000  1
  C  C142  1  0.36667000  0.12293000  0.16093000  1
  C  C143  1  0.30998000  0.15526000  0.21618000  1
  C  C144  1  0.69002000  0.84474000  0.78382000  1
  C  C145  1  0.63333000  0.87707000  0.83907000  1
  C  C146  1  0.65644000  0.60861000  0.79991000  1
  C  C147  1  0.74550000  0.66740000  0.70520000  1
  C  C148  1  0.32741000  0.14514000  0.10764000  1
  C  C149  1  0.21735000  0.20985000  0.21705000  1
  C  C150  1  0.65608000  0.66359000  0.76685000  1
  C  C151  1  0.56495000  0.60764000  0.85486000  1
  C  C152  1  0.64761000  0.86482000  0.72616000  1
  C  C153  1  0.22900000  0.60960000  0.13780000  1
  C  C154  1  0.98960000  0.16093000  0.37707000  1
  C  C155  1  0.56560000  0.71705000  0.79015000  1
  C  C156  1  0.98757000  0.27384000  0.36482000  1
  C  C157  1  0.47240000  0.66093000  0.87707000  1
  C  C158  1  0.18154000  0.56056000  0.16556000  1
  C  C159  1  0.18033000  0.23315000  0.16359000  1
  C  C160  1  0.23495000  0.20009000  0.10861000  1
  C  C161  1  0.92337000  0.86885000  0.41961000  1
  C  C162  1  0.97640000  0.89040000  0.36220000  1
  C  C163  1  0.97255000  0.10764000  0.35486000  1
  C  C164  1  0.47384000  0.71618000  0.84474000  1
  C  C165  1  0.96524000  0.21618000  0.34474000  1
  C  C166  1  0.77166000  0.66221000  0.52227000  1
  C  C167  1  0.21183000  0.63115000  0.08039000  1
  C  C168  1  0.81832000  0.57611000  0.44825000  1
  C  C169  1  0.88358000  0.48665000  0.37579000  1
  C  C170  1  0.08710000  0.29480000  0.16740000  1
  C  C171  1  0.74063000  0.87579000  0.51335000  1
  C  C172  1  0.11953000  0.53130000  0.13444000  1
  C  C173  1  0.80132000  0.89800000  0.45076000  1
  C  C174  1  0.90766000  0.93944000  0.33444000  1
  C  C175  1  0.37377000  0.77384000  0.86482000  1
  C  C176  1  0.93504000  0.10861000  0.29991000  1
  C  C177  1  0.33860000  0.13780000  0.89040000  1
  C  C178  1  0.06613000  0.47773000  0.16221000  1
  C  C179  1  0.92720000  0.21705000  0.29015000  1
  C  C180  1  0.74603000  0.63444000  0.46870000  1
  C  C181  1  0.34298000  0.08039000  0.86885000  1
  C  C182  1  0.15008000  0.60200000  0.04924000  1
  C  C183  1  0.80068000  0.54924000  0.39800000  1
  C  C184  1  0.10557000  0.55175000  0.07611000  1
  C  C185  1  0.24210000  0.16556000  0.93944000  1
  C  C186  1  0.91348000  0.16359000  0.26685000  1
  C  C187  1  0.73343000  0.94825000  0.42389000  1
  C  C188  1  0.78527000  0.96870000  0.36556000  1
  C  C189  1  0.25208000  0.04924000  0.89800000  1
  C  C190  1  0.25398000  0.98665000  0.87579000  1
  C  C191  1  0.15083000  0.13444000  0.96870000  1
  C  C192  1  0.45070000  0.79480000  0.66740000  1
  C  C193  1  0.12977000  0.62421000  0.98665000  1
  C  C194  1  0.15732000  0.07611000  0.94825000  1
  C  C195  1  0.65290000  0.66556000  0.43944000  1
  C  C196  1  0.88190000  0.16740000  0.20520000  1
  C  C197  1  0.42293000  0.73315000  0.66359000  1
  C  C198  1  0.70778000  0.58039000  0.36885000  1
  C  C199  1  0.35575000  0.70985000  0.71705000  1
  C  C200  1  0.04386000  0.16221000  0.02227000  1
  C  C201  1  0.45635000  0.70009000  0.60861000  1
  C  C202  1  0.70607000  0.02227000  0.33779000  1
  C  C203  1  0.31858000  0.65526000  0.71618000  1
  C  C204  1  0.41981000  0.64514000  0.60764000  1
  C  C205  1  0.63320000  0.63780000  0.39040000  1
  C  C206  1  0.23859000  0.63518000  0.77384000  1
  C  C207  1  0.34947000  0.62293000  0.66093000  1
  O  O208  1  0.61389000  0.05511000  0.37551000  1
  O  O209  1  0.26345000  0.96896000  0.71934000  1
  O  O210  1  0.16356000  0.87398000  0.81170000  1
  O  O211  1  0.92707000  0.40495000  0.03871000  1
  O  O212  1  0.01060000  0.87551000  0.94489000  1
  O  O213  1  0.98279000  0.78066000  0.96896000  1
  O  O214  1  0.17151000  0.59727000  0.77031000  1
  O  O215  1  0.76447000  0.34599000  0.17387000  1
  O  O216  1  0.83202000  0.03871000  0.09505000  1
  O  O217  1  0.09495000  0.78709000  0.82721000  1
  O  O218  1  0.61796000  0.17279000  0.28709000  1
  O  O219  1  0.82872000  0.33013000  0.03643000  1
  O  O220  1  0.97526000  0.68830000  0.87398000  1
  O  O221  1  0.46246000  0.18830000  0.37398000  1
  O  O222  1  0.37073000  0.09505000  0.46129000  1
  O  O223  1  0.95549000  0.55511000  0.87551000  1
  O  O224  1  0.65885000  0.03643000  0.16987000  1
  O  O225  1  0.73122000  0.22969000  0.09727000  1
  O  O226  1  0.13485000  0.53643000  0.66987000  1
  O  O227  1  0.61046000  0.17387000  0.15401000  1
  O  O228  1  0.26759000  0.28066000  0.46896000  1
  O  O229  1  0.95175000  0.53104000  0.78066000  1
  O  O230  1  0.46091000  0.09727000  0.27031000  1
  O  O231  1  0.06166000  0.67387000  0.65401000  1
  O  O232  1  0.92216000  0.67279000  0.78709000  1
  O  O233  1  0.19528000  0.16987000  0.46357000  1
  O  O234  1  0.03422000  0.53871000  0.59505000  1
  O  O235  1  0.29075000  0.28709000  0.32721000  1
  O  O236  1  0.16900000  0.37551000  0.44489000  1
  O  O237  1  0.28433000  0.15401000  0.32613000  1
  O  O238  1  0.94182000  0.72969000  0.59727000  1
  O  O239  1  0.84924000  0.62602000  0.68830000  1
  O  O240  1  0.15076000  0.37398000  0.31170000  1
  O  O241  1  0.05818000  0.27031000  0.40273000  1
  O  O242  1  0.71567000  0.84599000  0.67387000  1
  O  O243  1  0.83100000  0.62449000  0.55511000  1
  O  O244  1  0.70925000  0.71291000  0.67279000  1
  O  O245  1  0.96578000  0.46129000  0.40495000  1
  O  O246  1  0.80472000  0.83013000  0.53643000  1
  O  O247  1  0.07784000  0.32721000  0.21291000  1
  O  O248  1  0.93834000  0.32613000  0.34599000  1
  O  O249  1  0.53909000  0.90273000  0.72969000  1
  O  O250  1  0.04825000  0.46896000  0.21934000  1
  O  O251  1  0.73241000  0.71934000  0.53104000  1
  O  O252  1  0.38954000  0.82613000  0.84599000  1
  O  O253  1  0.86515000  0.46357000  0.33013000  1
  O  O254  1  0.26878000  0.77031000  0.90273000  1
  O  O255  1  0.34115000  0.96357000  0.83013000  1
  O  O256  1  0.04451000  0.44489000  0.12449000  1
  O  O257  1  0.62927000  0.90495000  0.53871000  1
  O  O258  1  0.53754000  0.81170000  0.62602000  1
  O  O259  1  0.02474000  0.31170000  0.12602000  1
  O  O260  1  0.17128000  0.66987000  0.96357000  1
  O  O261  1  0.38204000  0.82721000  0.71291000  1
  O  O262  1  0.90505000  0.21291000  0.17279000  1
  O  O263  1  0.16798000  0.96129000  0.90495000  1
  O  O264  1  0.23553000  0.65401000  0.82613000  1
  O  O265  1  0.82849000  0.40273000  0.22969000  1
  O  O266  1  0.01721000  0.21934000  0.03104000  1
  O  O267  1  0.98940000  0.12449000  0.05511000  1
  O  O268  1  0.07293000  0.59505000  0.96129000  1
  O  O269  1  0.83644000  0.12602000  0.18830000  1
  O  O270  1  0.73655000  0.03104000  0.28066000  1
  O  O271  1  0.38611000  0.94489000  0.62449000  1
