# generated using pymatgen
data_Co3H180Ru24C180(N9O58)2
_symmetry_space_group_name_H-M   'P 1'
_cell_length_a   17.46800000
_cell_length_b   28.91600000
_cell_length_c   31.19698935
_cell_angle_alpha   117.60944756
_cell_angle_beta   95.24386163
_cell_angle_gamma   90.00000000
_symmetry_Int_Tables_number   1
_chemical_formula_structural   Co3H180Ru24C180(N9O58)2
_chemical_formula_sum   'Co3 H180 Ru24 C180 N18 O116'
_cell_volume   13888.89817033
_cell_formula_units_Z   1
loop_
 _symmetry_equiv_pos_site_id
 _symmetry_equiv_pos_as_xyz
  1  'x, y, z'
loop_
 _atom_site_type_symbol
 _atom_site_label
 _atom_site_symmetry_multiplicity
 _atom_site_fract_x
 _atom_site_fract_y
 _atom_site_fract_z
 _atom_site_occupancy
  C  C0  1  0.67220000  0.98210000  0.96420000  1
  C  C1  1  0.41650000  0.89740000  0.92640000  1
  C  C2  1  0.41650000  0.02900000  0.92640000  1
  C  C3  1  0.65840000  0.95430000  0.90860000  1
  C  C4  1  0.43090000  0.84200000  0.89180000  1
  C  C5  1  0.43090000  0.04980000  0.89180000  1
  C  C6  1  0.72440000  0.94250000  0.88500000  1
  C  C7  1  0.58630000  0.94230000  0.88460000  1
  C  C8  1  0.50210000  0.82120000  0.88360000  1
  C  C9  1  0.50210000  0.06240000  0.88360000  1
  C  C10  1  0.63910000  0.65180000  0.87260000  1
  C  C11  1  0.63910000  0.22080000  0.87260000  1
  C  C12  1  0.36440000  0.81150000  0.86700000  1
  C  C13  1  0.36440000  0.05550000  0.86700000  1
  C  C14  1  0.27890000  0.63290000  0.86320000  1
  C  C15  1  0.27890000  0.23030000  0.86320000  1
  C  C16  1  0.50890000  0.76880000  0.84980000  1
  C  C17  1  0.50890000  0.08100000  0.84980000  1
  C  C18  1  0.71820000  0.91700000  0.83400000  1
  C  C19  1  0.57900000  0.91670000  0.83340000  1
  C  C20  1  0.37020000  0.75910000  0.83340000  1
  C  C21  1  0.37020000  0.07430000  0.83340000  1
  C  C22  1  0.58440000  0.62740000  0.82440000  1
  C  C23  1  0.58440000  0.19700000  0.82440000  1
  C  C24  1  0.33260000  0.61680000  0.82240000  1
  C  C25  1  0.33260000  0.20560000  0.82240000  1
  C  C26  1  0.45750000  0.44040000  0.76580000  1
  C  C27  1  0.45750000  0.32540000  0.76580000  1
  C  C28  1  0.45270000  0.48090000  0.74700000  1
  C  C29  1  0.45270000  0.26610000  0.74700000  1
  C  C30  1  0.43760000  0.77190000  0.73160000  1
  C  C31  1  0.43760000  0.95970000  0.73160000  1
  C  C32  1  0.68050000  0.49290000  0.73140000  1
  C  C33  1  0.68050000  0.23850000  0.73140000  1
  C  C34  1  0.80570000  0.75660000  0.73000000  1
  C  C35  1  0.80570000  0.97340000  0.73000000  1
  C  C36  1  0.22140000  0.47590000  0.72340000  1
  C  C37  1  0.22140000  0.24750000  0.72340000  1
  C  C38  1  0.56920000  0.64990000  0.71760000  1
  C  C39  1  0.56920000  0.06770000  0.71760000  1
  C  C40  1  0.74230000  0.45930000  0.71580000  1
  C  C41  1  0.74230000  0.25650000  0.71580000  1
  C  C42  1  0.49540000  0.79490000  0.71120000  1
  C  C43  1  0.75730000  0.78930000  0.71120000  1
  C  C44  1  0.75730000  0.92190000  0.71120000  1
  C  C45  1  0.49540000  0.91630000  0.71120000  1
  C  C46  1  0.30610000  0.63900000  0.70940000  1
  C  C47  1  0.30610000  0.07040000  0.70940000  1
  C  C48  1  0.15560000  0.44430000  0.70780000  1
  C  C49  1  0.15560000  0.26350000  0.70780000  1
  C  C50  1  0.61370000  0.67900000  0.69740000  1
  C  C51  1  0.61370000  0.01840000  0.69740000  1
  C  C52  1  0.24000000  0.66260000  0.69060000  1
  C  C53  1  0.24000000  0.02800000  0.69060000  1
  C  C54  1  0.76680000  0.44780000  0.67200000  1
  C  C55  1  0.76680000  0.22420000  0.67200000  1
  C  C56  1  0.11420000  0.43410000  0.66360000  1
  C  C57  1  0.11420000  0.22950000  0.66360000  1
  C  C58  1  0.66800000  0.50290000  0.65720000  1
  C  C59  1  0.66800000  0.15430000  0.65720000  1
  C  C60  1  0.20550000  0.48820000  0.65280000  1
  C  C61  1  0.20550000  0.16460000  0.65280000  1
  C  C62  1  0.82620000  0.40900000  0.65160000  1
  C  C63  1  0.82620000  0.24260000  0.65160000  1
  C  C64  1  0.04140000  0.39790000  0.64560000  1
  C  C65  1  0.04140000  0.24770000  0.64560000  1
  C  C66  1  0.72850000  0.46930000  0.64340000  1
  C  C67  1  0.72850000  0.17410000  0.64340000  1
  C  C68  1  0.13950000  0.45660000  0.63600000  1
  C  C69  1  0.13950000  0.17940000  0.63600000  1
  C  C70  1  0.44650000  0.49550000  0.62740000  1
  C  C71  1  0.44650000  0.13190000  0.62740000  1
  C  C72  1  0.84450000  0.74690000  0.57680000  1
  C  C73  1  0.84450000  0.82990000  0.57680000  1
  C  C74  1  0.43450000  0.45820000  0.57320000  1
  C  C75  1  0.43450000  0.11500000  0.57320000  1
  C  C76  1  0.38630000  0.74500000  0.57300000  1
  C  C77  1  0.38630000  0.82800000  0.57300000  1
  C  C78  1  0.61980000  0.71150000  0.56860000  1
  C  C79  1  0.61980000  0.85710000  0.56860000  1
  C  C80  1  0.90500000  0.73140000  0.54700000  1
  C  C81  1  0.90500000  0.81560000  0.54700000  1
  C  C82  1  0.31680000  0.72990000  0.54300000  1
  C  C83  1  0.31680000  0.81310000  0.54300000  1
  C  C84  1  0.93770000  0.76750000  0.53500000  1
  C  C85  1  0.60490000  0.65790000  0.53400000  1
  C  C86  1  0.60490000  0.87610000  0.53400000  1
  C  C87  1  0.28160000  0.76380000  0.52760000  1
  C  C88  1  0.00780000  0.25310000  0.50620000  1
  C  C89  1  0.79970000  0.25140000  0.50280000  1
  C  C90  1  0.20030000  0.74860000  0.49720000  1
  C  C91  1  0.99220000  0.74690000  0.49380000  1
  C  C92  1  0.71840000  0.23620000  0.47240000  1
  C  C93  1  0.39510000  0.34210000  0.46600000  1
  C  C94  1  0.39510000  0.12390000  0.46600000  1
  C  C95  1  0.06230000  0.23250000  0.46500000  1
  C  C96  1  0.68320000  0.27010000  0.45700000  1
  C  C97  1  0.68320000  0.18690000  0.45700000  1
  C  C98  1  0.09500000  0.26860000  0.45300000  1
  C  C99  1  0.09500000  0.18440000  0.45300000  1
  C  C100  1  0.38020000  0.28850000  0.43140000  1
  C  C101  1  0.38020000  0.14290000  0.43140000  1
  C  C102  1  0.61370000  0.25500000  0.42700000  1
  C  C103  1  0.61370000  0.17200000  0.42700000  1
  C  C104  1  0.56550000  0.54180000  0.42680000  1
  C  C105  1  0.56550000  0.88500000  0.42680000  1
  C  C106  1  0.15550000  0.25310000  0.42320000  1
  C  C107  1  0.15550000  0.17010000  0.42320000  1
  C  C108  1  0.55350000  0.50450000  0.37260000  1
  C  C109  1  0.55350000  0.86810000  0.37260000  1
  C  C110  1  0.86050000  0.54340000  0.36400000  1
  C  C111  1  0.86050000  0.82060000  0.36400000  1
  C  C112  1  0.27150000  0.53070000  0.35660000  1
  C  C113  1  0.27150000  0.82590000  0.35660000  1
  C  C114  1  0.95860000  0.60210000  0.35440000  1
  C  C115  1  0.95860000  0.75230000  0.35440000  1
  C  C116  1  0.17380000  0.59100000  0.34840000  1
  C  C117  1  0.17380000  0.75740000  0.34840000  1
  C  C118  1  0.79450000  0.51180000  0.34720000  1
  C  C119  1  0.79450000  0.83540000  0.34720000  1
  C  C120  1  0.33200000  0.49710000  0.34280000  1
  C  C121  1  0.33200000  0.84570000  0.34280000  1
  C  C122  1  0.88580000  0.56590000  0.33640000  1
  C  C123  1  0.88580000  0.77050000  0.33640000  1
  C  C124  1  0.23320000  0.55220000  0.32800000  1
  C  C125  1  0.23320000  0.77580000  0.32800000  1
  C  C126  1  0.76000000  0.33740000  0.30940000  1
  C  C127  1  0.76000000  0.97200000  0.30940000  1
  C  C128  1  0.38630000  0.32100000  0.30260000  1
  C  C129  1  0.38630000  0.98160000  0.30260000  1
  C  C130  1  0.84440000  0.55570000  0.29220000  1
  C  C131  1  0.84440000  0.73650000  0.29220000  1
  C  C132  1  0.69390000  0.36100000  0.29060000  1
  C  C133  1  0.69390000  0.92960000  0.29060000  1
  C  C134  1  0.24270000  0.21070000  0.28880000  1
  C  C135  1  0.50460000  0.20510000  0.28880000  1
  C  C136  1  0.50460000  0.08370000  0.28880000  1
  C  C137  1  0.24270000  0.07810000  0.28880000  1
  C  C138  1  0.25770000  0.54070000  0.28420000  1
  C  C139  1  0.25770000  0.74350000  0.28420000  1
  C  C140  1  0.43080000  0.35010000  0.28240000  1
  C  C141  1  0.43080000  0.93230000  0.28240000  1
  C  C142  1  0.77860000  0.52410000  0.27660000  1
  C  C143  1  0.77860000  0.75250000  0.27660000  1
  C  C144  1  0.19430000  0.24340000  0.27000000  1
  C  C145  1  0.19430000  0.02660000  0.27000000  1
  C  C146  1  0.31950000  0.50710000  0.26860000  1
  C  C147  1  0.31950000  0.76150000  0.26860000  1
  C  C148  1  0.56240000  0.22810000  0.26840000  1
  C  C149  1  0.56240000  0.04030000  0.26840000  1
  C  C150  1  0.54730000  0.51910000  0.25300000  1
  C  C151  1  0.54730000  0.73390000  0.25300000  1
  C  C152  1  0.54250000  0.55960000  0.23420000  1
  C  C153  1  0.54250000  0.67460000  0.23420000  1
  C  C154  1  0.66740000  0.38320000  0.17760000  1
  C  C155  1  0.66740000  0.79440000  0.17760000  1
  C  C156  1  0.41560000  0.37260000  0.17560000  1
  C  C157  1  0.41560000  0.80300000  0.17560000  1
  C  C158  1  0.62980000  0.24090000  0.16660000  1
  C  C159  1  0.42100000  0.08330000  0.16660000  1
  C  C160  1  0.62980000  0.92570000  0.16660000  1
  C  C161  1  0.28180000  0.08300000  0.16600000  1
  C  C162  1  0.49110000  0.23120000  0.15020000  1
  C  C163  1  0.49110000  0.91900000  0.15020000  1
  C  C164  1  0.72110000  0.36710000  0.13680000  1
  C  C165  1  0.72110000  0.76970000  0.13680000  1
  C  C166  1  0.63560000  0.18850000  0.13300000  1
  C  C167  1  0.63560000  0.94450000  0.13300000  1
  C  C168  1  0.36090000  0.34820000  0.12740000  1
  C  C169  1  0.36090000  0.77920000  0.12740000  1
  C  C170  1  0.49790000  0.17880000  0.11640000  1
  C  C171  1  0.49790000  0.93760000  0.11640000  1
  C  C172  1  0.41370000  0.05770000  0.11540000  1
  C  C173  1  0.27560000  0.05750000  0.11500000  1
  C  C174  1  0.56910000  0.15800000  0.10820000  1
  C  C175  1  0.56910000  0.95020000  0.10820000  1
  C  C176  1  0.34160000  0.04570000  0.09140000  1
  C  C177  1  0.58350000  0.10260000  0.07360000  1
  C  C178  1  0.58350000  0.97100000  0.07360000  1
  C  C179  1  0.32780000  0.01790000  0.03580000  1
  Co  Co180  1  0.50000000  0.00000000  0.00000000  1
  Co  Co181  1  0.29890000  0.97485000  0.94970000  1
  Co  Co182  1  0.70110000  0.02515000  0.05030000  1
  H  H183  1  0.77350000  0.95160000  0.90320000  1
  H  H184  1  0.54210000  0.95090000  0.90180000  1
  H  H185  1  0.54710000  0.84220000  0.90160000  1
  H  H186  1  0.54710000  0.05940000  0.90160000  1
  H  H187  1  0.61650000  0.67990000  0.89980000  1
  H  H188  1  0.61650000  0.21990000  0.89980000  1
  H  H189  1  0.29690000  0.66720000  0.88960000  1
  H  H190  1  0.29690000  0.22240000  0.88960000  1
  H  H191  1  0.64980000  0.62280000  0.88000000  1
  H  H192  1  0.64980000  0.25720000  0.88000000  1
  H  H193  1  0.28170000  0.60700000  0.87520000  1
  H  H194  1  0.28170000  0.26820000  0.87520000  1
  H  H195  1  0.31550000  0.82620000  0.87260000  1
  H  H196  1  0.31550000  0.04640000  0.87260000  1
  H  H197  1  0.68710000  0.66490000  0.86720000  1
  H  H198  1  0.68710000  0.20230000  0.86720000  1
  H  H199  1  0.22560000  0.63450000  0.85140000  1
  H  H200  1  0.22560000  0.21690000  0.85140000  1
  H  H201  1  0.55780000  0.75400000  0.84320000  1
  H  H202  1  0.55780000  0.08920000  0.84320000  1
  H  H203  1  0.76260000  0.90840000  0.81680000  1
  H  H204  1  0.32520000  0.73790000  0.81580000  1
  H  H205  1  0.32520000  0.07790000  0.81580000  1
  H  H206  1  0.52970000  0.90770000  0.81540000  1
  H  H207  1  0.47920000  0.45820000  0.80000000  1
  H  H208  1  0.47920000  0.34180000  0.80000000  1
  H  H209  1  0.43830000  0.79480000  0.76660000  1
  H  H210  1  0.43830000  0.97180000  0.76660000  1
  H  H211  1  0.40560000  0.42610000  0.76360000  1
  H  H212  1  0.40560000  0.33750000  0.76360000  1
  H  H213  1  0.66190000  0.50170000  0.76160000  1
  H  H214  1  0.66190000  0.25990000  0.76160000  1
  H  H215  1  0.77750000  0.75050000  0.75280000  1
  H  H216  1  0.77750000  0.00230000  0.75280000  1
  H  H217  1  0.25200000  0.48260000  0.75260000  1
  H  H218  1  0.25200000  0.27000000  0.75260000  1
  H  H219  1  0.49030000  0.41200000  0.74720000  1
  H  H220  1  0.49030000  0.33520000  0.74720000  1
  H  H221  1  0.85600000  0.77390000  0.74620000  1
  H  H222  1  0.85600000  0.97230000  0.74620000  1
  H  H223  1  0.76710000  0.44470000  0.73480000  1
  H  H224  1  0.76710000  0.29010000  0.73480000  1
  H  H225  1  0.13910000  0.42950000  0.72720000  1
  H  H226  1  0.13910000  0.29770000  0.72720000  1
  H  H227  1  0.45180000  0.73690000  0.72600000  1
  H  H228  1  0.45180000  0.98910000  0.72600000  1
  H  H229  1  0.61020000  0.71680000  0.71660000  1
  H  H230  1  0.61020000  0.99980000  0.71660000  1
  H  H231  1  0.22270000  0.69530000  0.71580000  1
  H  H232  1  0.22270000  0.02050000  0.71580000  1
  H  H233  1  0.38590000  0.76990000  0.71560000  1
  H  H234  1  0.38590000  0.94570000  0.71560000  1
  H  H235  1  0.81310000  0.72310000  0.70160000  1
  H  H236  1  0.81310000  0.97850000  0.70160000  1
  H  H237  1  0.66770000  0.67000000  0.69780000  1
  H  H238  1  0.66770000  0.02780000  0.69780000  1
  H  H239  1  0.19750000  0.63600000  0.67760000  1
  H  H240  1  0.19750000  0.04160000  0.67760000  1
  H  H241  1  0.25650000  0.66840000  0.66420000  1
  H  H242  1  0.25650000  0.99580000  0.66420000  1
  H  H243  1  0.59210000  0.66810000  0.66380000  1
  H  H244  1  0.59210000  0.99570000  0.66380000  1
  H  H245  1  0.64290000  0.51780000  0.63840000  1
  H  H246  1  0.64290000  0.12060000  0.63840000  1
  H  H247  1  0.22230000  0.50370000  0.63400000  1
  H  H248  1  0.22230000  0.13030000  0.63400000  1
  H  H249  1  0.74610000  0.45970000  0.61260000  1
  H  H250  1  0.74610000  0.15290000  0.61260000  1
  H  H251  1  0.10940000  0.45040000  0.60680000  1
  H  H252  1  0.10940000  0.15640000  0.60680000  1
  H  H253  1  0.82310000  0.72340000  0.58660000  1
  H  H254  1  0.82310000  0.86320000  0.58660000  1
  H  H255  1  0.40990000  0.72200000  0.58360000  1
  H  H256  1  0.40990000  0.86160000  0.58360000  1
  H  H257  1  0.40070000  0.42840000  0.56760000  1
  H  H258  1  0.40070000  0.13920000  0.56760000  1
  H  H259  1  0.48520000  0.44580000  0.56300000  1
  H  H260  1  0.48520000  0.11720000  0.56300000  1
  H  H261  1  0.41230000  0.47480000  0.55400000  1
  H  H262  1  0.41230000  0.07920000  0.55400000  1
  H  H263  1  0.63260000  0.63550000  0.54540000  1
  H  H264  1  0.63260000  0.90990000  0.54540000  1
  H  H265  1  0.92460000  0.69770000  0.53640000  1
  H  H266  1  0.92460000  0.83870000  0.53640000  1
  H  H267  1  0.29360000  0.69620000  0.53280000  1
  H  H268  1  0.29360000  0.83660000  0.53280000  1
  H  H269  1  0.54960000  0.64860000  0.52860000  1
  H  H270  1  0.54960000  0.88000000  0.52860000  1
  H  H271  1  0.62340000  0.65320000  0.50360000  1
  H  H272  1  0.62340000  0.85040000  0.50360000  1
  H  H273  1  0.37660000  0.34680000  0.49640000  1
  H  H274  1  0.37660000  0.14960000  0.49640000  1
  H  H275  1  0.45040000  0.35140000  0.47140000  1
  H  H276  1  0.45040000  0.12000000  0.47140000  1
  H  H277  1  0.70640000  0.30380000  0.46720000  1
  H  H278  1  0.70640000  0.16340000  0.46720000  1
  H  H279  1  0.07540000  0.30230000  0.46360000  1
  H  H280  1  0.07540000  0.16130000  0.46360000  1
  H  H281  1  0.36740000  0.36450000  0.45460000  1
  H  H282  1  0.36740000  0.09010000  0.45460000  1
  H  H283  1  0.58770000  0.52520000  0.44600000  1
  H  H284  1  0.58770000  0.92080000  0.44600000  1
  H  H285  1  0.51480000  0.55420000  0.43700000  1
  H  H286  1  0.51480000  0.88280000  0.43700000  1
  H  H287  1  0.59930000  0.57160000  0.43240000  1
  H  H288  1  0.59930000  0.86080000  0.43240000  1
  H  H289  1  0.59010000  0.27800000  0.41640000  1
  H  H290  1  0.59010000  0.13840000  0.41640000  1
  H  H291  1  0.17690000  0.27660000  0.41340000  1
  H  H292  1  0.17690000  0.13680000  0.41340000  1
  H  H293  1  0.89060000  0.54960000  0.39320000  1
  H  H294  1  0.89060000  0.84360000  0.39320000  1
  H  H295  1  0.25390000  0.54030000  0.38740000  1
  H  H296  1  0.25390000  0.84710000  0.38740000  1
  H  H297  1  0.77770000  0.49630000  0.36600000  1
  H  H298  1  0.77770000  0.86970000  0.36600000  1
  H  H299  1  0.35710000  0.48220000  0.36160000  1
  H  H300  1  0.35710000  0.87940000  0.36160000  1
  H  H301  1  0.40790000  0.33190000  0.33620000  1
  H  H302  1  0.40790000  0.00430000  0.33620000  1
  H  H303  1  0.74350000  0.33160000  0.33580000  1
  H  H304  1  0.74350000  0.00420000  0.33580000  1
  H  H305  1  0.80250000  0.36400000  0.32240000  1
  H  H306  1  0.80250000  0.95840000  0.32240000  1
  H  H307  1  0.33230000  0.33000000  0.30220000  1
  H  H308  1  0.33230000  0.97220000  0.30220000  1
  H  H309  1  0.18690000  0.27690000  0.29840000  1
  H  H310  1  0.18690000  0.02150000  0.29840000  1
  H  H311  1  0.61410000  0.23010000  0.28440000  1
  H  H312  1  0.61410000  0.05430000  0.28440000  1
  H  H313  1  0.77730000  0.30470000  0.28420000  1
  H  H314  1  0.77730000  0.97950000  0.28420000  1
  H  H315  1  0.38980000  0.28320000  0.28340000  1
  H  H316  1  0.38980000  0.00020000  0.28340000  1
  H  H317  1  0.54820000  0.26310000  0.27400000  1
  H  H318  1  0.54820000  0.01090000  0.27400000  1
  H  H319  1  0.86090000  0.57050000  0.27280000  1
  H  H320  1  0.86090000  0.70230000  0.27280000  1
  H  H321  1  0.23290000  0.55530000  0.26520000  1
  H  H322  1  0.23290000  0.70990000  0.26520000  1
  H  H323  1  0.14400000  0.22610000  0.25380000  1
  H  H324  1  0.14400000  0.02770000  0.25380000  1
  H  H325  1  0.50970000  0.58800000  0.25280000  1
  H  H326  1  0.50970000  0.66480000  0.25280000  1
  H  H327  1  0.74800000  0.51740000  0.24740000  1
  H  H328  1  0.74800000  0.73000000  0.24740000  1
  H  H329  1  0.22250000  0.24950000  0.24720000  1
  H  H330  1  0.22250000  0.99770000  0.24720000  1
  H  H331  1  0.33810000  0.49830000  0.23840000  1
  H  H332  1  0.33810000  0.74010000  0.23840000  1
  H  H333  1  0.59440000  0.57390000  0.23640000  1
  H  H334  1  0.59440000  0.66250000  0.23640000  1
  H  H335  1  0.56170000  0.20520000  0.23340000  1
  H  H336  1  0.56170000  0.02820000  0.23340000  1
  H  H337  1  0.52080000  0.54180000  0.20000000  1
  H  H338  1  0.52080000  0.65820000  0.20000000  1
  H  H339  1  0.47030000  0.09230000  0.18460000  1
  H  H340  1  0.67480000  0.26210000  0.18420000  1
  H  H341  1  0.67480000  0.92210000  0.18420000  1
  H  H342  1  0.23740000  0.09160000  0.18320000  1
  H  H343  1  0.44220000  0.24600000  0.15680000  1
  H  H344  1  0.44220000  0.91080000  0.15680000  1
  H  H345  1  0.77440000  0.36550000  0.14860000  1
  H  H346  1  0.77440000  0.78310000  0.14860000  1
  H  H347  1  0.31290000  0.33510000  0.13280000  1
  H  H348  1  0.31290000  0.79770000  0.13280000  1
  H  H349  1  0.68450000  0.17380000  0.12740000  1
  H  H350  1  0.68450000  0.95360000  0.12740000  1
  H  H351  1  0.71830000  0.39300000  0.12480000  1
  H  H352  1  0.71830000  0.73180000  0.12480000  1
  H  H353  1  0.35020000  0.37720000  0.12000000  1
  H  H354  1  0.35020000  0.74280000  0.12000000  1
  H  H355  1  0.70310000  0.33280000  0.11040000  1
  H  H356  1  0.70310000  0.77760000  0.11040000  1
  H  H357  1  0.38350000  0.32010000  0.10020000  1
  H  H358  1  0.38350000  0.78010000  0.10020000  1
  H  H359  1  0.45290000  0.15780000  0.09840000  1
  H  H360  1  0.45290000  0.94060000  0.09840000  1
  H  H361  1  0.45790000  0.04910000  0.09820000  1
  H  H362  1  0.22650000  0.04840000  0.09680000  1
  N  N363  1  0.44230000  0.73860000  0.82560000  1
  N  N364  1  0.44230000  0.08700000  0.82560000  1
  N  N365  1  0.64450000  0.90490000  0.80980000  1
  N  N366  1  0.64780000  0.51210000  0.70200000  1
  N  N367  1  0.64780000  0.18990000  0.70200000  1
  N  N368  1  0.24530000  0.49750000  0.69540000  1
  N  N369  1  0.24530000  0.19790000  0.69540000  1
  N  N370  1  0.81310000  0.79460000  0.58920000  1
  N  N371  1  0.42060000  0.79390000  0.58780000  1
  N  N372  1  0.57940000  0.20610000  0.41220000  1
  N  N373  1  0.18690000  0.20540000  0.41080000  1
  N  N374  1  0.75470000  0.50250000  0.30460000  1
  N  N375  1  0.75470000  0.80210000  0.30460000  1
  N  N376  1  0.35220000  0.48790000  0.29800000  1
  N  N377  1  0.35220000  0.81010000  0.29800000  1
  N  N378  1  0.35550000  0.09510000  0.19020000  1
  N  N379  1  0.55770000  0.26140000  0.17440000  1
  N  N380  1  0.55770000  0.91300000  0.17440000  1
  O  O381  1  0.61490000  0.99260000  0.98520000  1
  O  O382  1  0.73970000  0.98970000  0.97940000  1
  O  O383  1  0.47930000  0.92280000  0.94780000  1
  O  O384  1  0.47930000  0.02500000  0.94780000  1
  O  O385  1  0.34700000  0.91040000  0.93020000  1
  O  O386  1  0.34700000  0.01980000  0.93020000  1
  O  O387  1  0.52580000  0.65590000  0.83320000  1
  O  O388  1  0.52580000  0.17730000  0.83320000  1
  O  O389  1  0.36590000  0.65400000  0.82280000  1
  O  O390  1  0.36590000  0.16880000  0.82280000  1
  O  O391  1  0.60180000  0.59310000  0.78720000  1
  O  O392  1  0.60180000  0.19410000  0.78720000  1
  O  O393  1  0.32070000  0.57230000  0.78700000  1
  O  O394  1  0.32070000  0.21470000  0.78700000  1
  O  O395  1  0.51730000  0.49920000  0.75000000  1
  O  O396  1  0.51730000  0.25080000  0.75000000  1
  O  O397  1  0.52850000  0.67410000  0.74800000  1
  O  O398  1  0.52850000  0.07390000  0.74800000  1
  O  O399  1  0.45110000  0.58390000  0.74040000  1
  O  O400  1  0.45110000  0.15650000  0.74040000  1
  O  O401  1  0.71430000  0.81850000  0.73800000  1
  O  O402  1  0.71430000  0.91950000  0.73800000  1
  O  O403  1  0.55210000  0.81710000  0.73740000  1
  O  O404  1  0.55210000  0.92030000  0.73740000  1
  O  O405  1  0.36440000  0.66540000  0.73460000  1
  O  O406  1  0.36440000  0.06920000  0.73460000  1
  O  O407  1  0.38910000  0.48640000  0.73360000  1
  O  O408  1  0.38910000  0.24720000  0.73360000  1
  O  O409  1  0.29330000  0.59400000  0.70240000  1
  O  O410  1  0.29330000  0.10840000  0.70240000  1
  O  O411  1  0.57680000  0.60330000  0.69740000  1
  O  O412  1  0.57680000  0.09410000  0.69740000  1
  O  O413  1  0.84930000  0.38990000  0.67740000  1
  O  O414  1  0.84930000  0.28750000  0.67740000  1
  O  O415  1  0.02100000  0.38650000  0.67680000  1
  O  O416  1  0.02100000  0.29030000  0.67680000  1
  O  O417  1  0.76900000  0.78500000  0.67140000  1
  O  O418  1  0.76900000  0.88640000  0.67140000  1
  O  O419  1  0.48160000  0.78360000  0.66800000  1
  O  O420  1  0.48160000  0.88440000  0.66800000  1
  O  O421  1  0.61740000  0.82930000  0.65860000  1
  O  O422  1  0.50260000  0.50380000  0.65600000  1
  O  O423  1  0.50260000  0.15220000  0.65600000  1
  O  O424  1  0.38320000  0.50420000  0.64360000  1
  O  O425  1  0.38320000  0.13940000  0.64360000  1
  O  O426  1  0.84430000  0.39440000  0.61060000  1
  O  O427  1  0.84430000  0.21620000  0.61060000  1
  O  O428  1  0.00870000  0.38910000  0.60620000  1
  O  O429  1  0.00870000  0.21710000  0.60620000  1
  O  O430  1  0.92030000  0.30057000  0.60114000  1
  O  O431  1  0.68130000  0.74230000  0.58480000  1
  O  O432  1  0.68130000  0.84250000  0.58480000  1
  O  O433  1  0.55560000  0.73800000  0.57900000  1
  O  O434  1  0.55560000  0.84100000  0.57900000  1
  O  O435  1  0.82380000  0.29680000  0.51860000  1
  O  O436  1  0.82380000  0.22180000  0.51860000  1
  O  O437  1  0.98510000  0.29700000  0.51500000  1
  O  O438  1  0.98510000  0.21800000  0.51500000  1
  O  O439  1  0.01490000  0.70300000  0.48500000  1
  O  O440  1  0.01490000  0.78200000  0.48500000  1
  O  O441  1  0.17620000  0.70320000  0.48140000  1
  O  O442  1  0.17620000  0.77820000  0.48140000  1
  O  O443  1  0.44440000  0.26200000  0.42100000  1
  O  O444  1  0.44440000  0.15900000  0.42100000  1
  O  O445  1  0.31870000  0.25770000  0.41520000  1
  O  O446  1  0.31870000  0.15750000  0.41520000  1
  O  O447  1  0.07970000  0.69943000  0.39886000  1
  O  O448  1  0.99130000  0.61090000  0.39380000  1
  O  O449  1  0.99130000  0.78290000  0.39380000  1
  O  O450  1  0.15570000  0.60560000  0.38940000  1
  O  O451  1  0.15570000  0.78380000  0.38940000  1
  O  O452  1  0.61680000  0.49580000  0.35640000  1
  O  O453  1  0.61680000  0.86060000  0.35640000  1
  O  O454  1  0.49740000  0.49620000  0.34400000  1
  O  O455  1  0.49740000  0.84780000  0.34400000  1
  O  O456  1  0.38260000  0.17070000  0.34140000  1
  O  O457  1  0.51840000  0.21640000  0.33200000  1
  O  O458  1  0.51840000  0.11560000  0.33200000  1
  O  O459  1  0.23100000  0.21500000  0.32860000  1
  O  O460  1  0.23100000  0.11360000  0.32860000  1
  O  O461  1  0.97900000  0.61350000  0.32320000  1
  O  O462  1  0.97900000  0.70970000  0.32320000  1
  O  O463  1  0.15070000  0.61010000  0.32260000  1
  O  O464  1  0.15070000  0.71250000  0.32260000  1
  O  O465  1  0.42320000  0.39670000  0.30260000  1
  O  O466  1  0.42320000  0.90590000  0.30260000  1
  O  O467  1  0.70670000  0.40600000  0.29760000  1
  O  O468  1  0.70670000  0.89160000  0.29760000  1
  O  O469  1  0.61090000  0.51360000  0.26640000  1
  O  O470  1  0.61090000  0.75280000  0.26640000  1
  O  O471  1  0.63560000  0.33460000  0.26540000  1
  O  O472  1  0.63560000  0.93080000  0.26540000  1
  O  O473  1  0.44790000  0.18290000  0.26260000  1
  O  O474  1  0.44790000  0.07970000  0.26260000  1
  O  O475  1  0.28570000  0.18150000  0.26200000  1
  O  O476  1  0.28570000  0.08050000  0.26200000  1
  O  O477  1  0.54890000  0.41610000  0.25960000  1
  O  O478  1  0.54890000  0.84350000  0.25960000  1
  O  O479  1  0.47150000  0.32590000  0.25200000  1
  O  O480  1  0.47150000  0.92610000  0.25200000  1
  O  O481  1  0.48270000  0.50080000  0.25000000  1
  O  O482  1  0.48270000  0.74920000  0.25000000  1
  O  O483  1  0.67930000  0.42770000  0.21300000  1
  O  O484  1  0.67930000  0.78530000  0.21300000  1
  O  O485  1  0.39820000  0.40690000  0.21280000  1
  O  O486  1  0.39820000  0.80590000  0.21280000  1
  O  O487  1  0.63410000  0.34600000  0.17720000  1
  O  O488  1  0.63410000  0.83120000  0.17720000  1
  O  O489  1  0.47420000  0.34410000  0.16680000  1
  O  O490  1  0.47420000  0.82270000  0.16680000  1
  O  O491  1  0.65300000  0.08960000  0.06980000  1
  O  O492  1  0.65300000  0.98020000  0.06980000  1
  O  O493  1  0.52070000  0.07720000  0.05220000  1
  O  O494  1  0.52070000  0.97500000  0.05220000  1
  O  O495  1  0.26030000  0.01030000  0.02060000  1
  O  O496  1  0.38510000  0.00740000  0.01480000  1
  Ru  Ru497  1  0.44528000  0.65729000  0.78190000  1
  Ru  Ru498  1  0.44528000  0.12461000  0.78190000  1
  Ru  Ru499  1  0.63257000  0.86585000  0.73170000  1
  Ru  Ru500  1  0.54234000  0.55168000  0.72422000  1
  Ru  Ru501  1  0.54234000  0.17254000  0.72422000  1
  Ru  Ru502  1  0.35080000  0.54287000  0.71858000  1
  Ru  Ru503  1  0.35080000  0.17571000  0.71858000  1
  Ru  Ru504  1  0.93470000  0.33753000  0.67506000  1
  Ru  Ru505  1  0.71482000  0.81465000  0.62930000  1
  Ru  Ru506  1  0.52460000  0.81304000  0.62608000  1
  Ru  Ru507  1  0.91474000  0.34361000  0.56484000  1
  Ru  Ru508  1  0.91474000  0.22123000  0.56484000  1
  Ru  Ru509  1  0.08526000  0.65639000  0.43516000  1
  Ru  Ru510  1  0.08526000  0.77877000  0.43516000  1
  Ru  Ru511  1  0.47540000  0.18696000  0.37392000  1
  Ru  Ru512  1  0.28518000  0.18535000  0.37070000  1
  Ru  Ru513  1  0.06530000  0.66247000  0.32494000  1
  Ru  Ru514  1  0.64920000  0.45713000  0.28142000  1
  Ru  Ru515  1  0.64920000  0.82429000  0.28142000  1
  Ru  Ru516  1  0.45766000  0.44832000  0.27578000  1
  Ru  Ru517  1  0.45766000  0.82746000  0.27578000  1
  Ru  Ru518  1  0.36743000  0.13415000  0.26830000  1
  Ru  Ru519  1  0.55472000  0.34271000  0.21810000  1
  Ru  Ru520  1  0.55472000  0.87539000  0.21810000  1
