# generated using pymatgen
data_CdH20C21O4
_symmetry_space_group_name_H-M   'P 1'
_cell_length_a   14.06810000
_cell_length_b   14.87123828
_cell_length_c   14.87123828
_cell_angle_alpha   92.58643077
_cell_angle_beta   116.69100108
_cell_angle_gamma   116.69100108
_symmetry_Int_Tables_number   1
_chemical_formula_structural   CdH20C21O4
_chemical_formula_sum   'Cd4 H80 C84 O16'
_cell_volume   2361.71809101
_cell_formula_units_Z   4
loop_
 _symmetry_equiv_pos_site_id
 _symmetry_equiv_pos_as_xyz
  1  'x, y, z'
loop_
 _atom_site_type_symbol
 _atom_site_label
 _atom_site_symmetry_multiplicity
 _atom_site_fract_x
 _atom_site_fract_y
 _atom_site_fract_z
 _atom_site_occupancy
  C  C0  1  0.93880000  0.63600000  0.29000000  1
  C  C1  1  0.43880000  0.29000000  0.63600000  1
  C  C2  1  0.55680000  0.82100000  0.06560000  1
  C  C3  1  0.05680000  0.06560000  0.82100000  1
  C  C4  1  0.38550000  0.76140000  0.10680000  1
  C  C5  1  0.88550000  0.10680000  0.76140000  1
  C  C6  1  0.45270000  0.73730000  0.07390000  1
  C  C7  1  0.95270000  0.07390000  0.73730000  1
  C  C8  1  0.28930000  0.68310000  0.11290000  1
  C  C9  1  0.78930000  0.11290000  0.68310000  1
  C  C10  1  0.08480000  0.83510000  0.93990000  1
  C  C11  1  0.58480000  0.93990000  0.83510000  1
  C  C12  1  0.89250000  0.59530000  0.17290000  1
  C  C13  1  0.39250000  0.17290000  0.59530000  1
  C  C14  1  0.79670000  0.61390000  0.10630000  1
  C  C15  1  0.29670000  0.10630000  0.61390000  1
  C  C16  1  0.42010000  0.63220000  0.04440000  1
  C  C17  1  0.92010000  0.04440000  0.63220000  1
  C  C18  1  0.91180000  0.70670000  0.96250000  1
  C  C19  1  0.41180000  0.96250000  0.70670000  1
  C  C20  1  0.25750000  0.57840000  0.08420000  1
  C  C21  1  0.75750000  0.08420000  0.57840000  1
  C  C22  1  0.99870000  0.72460000  0.93300000  1
  C  C23  1  0.49870000  0.93300000  0.72460000  1
  C  C24  1  0.53160000  0.40950000  0.24090000  1
  C  C25  1  0.03160000  0.24090000  0.40950000  1
  C  C26  1  0.43140000  0.44270000  0.18730000  1
  C  C27  1  0.93140000  0.18730000  0.44270000  1
  C  C28  1  0.32230000  0.55320000  0.04920000  1
  C  C29  1  0.82230000  0.04920000  0.55320000  1
  C  C30  1  0.07370000  0.46230000  0.11070000  1
  C  C31  1  0.57370000  0.11070000  0.46230000  1
  C  C32  1  0.16210000  0.48030000  0.08290000  1
  C  C33  1  0.66210000  0.08290000  0.48030000  1
  C  C34  1  0.83150000  0.60330000  0.95370000  1
  C  C35  1  0.33150000  0.95370000  0.60330000  1
  C  C36  1  0.73270000  0.56680000  0.98200000  1
  C  C37  1  0.23270000  0.98200000  0.56680000  1
  C  C38  1  0.00500000  0.64080000  0.89620000  1
  C  C39  1  0.50500000  0.89620000  0.64080000  1
  C  C40  1  0.63650000  0.59700000  0.92520000  1
  C  C41  1  0.13650000  0.92520000  0.59700000  1
  C  C42  1  0.36350000  0.40300000  0.07480000  1
  C  C43  1  0.86350000  0.07480000  0.40300000  1
  C  C44  1  0.99500000  0.35920000  0.10380000  1
  C  C45  1  0.49500000  0.10380000  0.35920000  1
  C  C46  1  0.26730000  0.43320000  0.01800000  1
  C  C47  1  0.76730000  0.01800000  0.43320000  1
  C  C48  1  0.16850000  0.39670000  0.04630000  1
  C  C49  1  0.66850000  0.04630000  0.39670000  1
  C  C50  1  0.83790000  0.51970000  0.91710000  1
  C  C51  1  0.33790000  0.91710000  0.51970000  1
  C  C52  1  0.92630000  0.53770000  0.88930000  1
  C  C53  1  0.42630000  0.88930000  0.53770000  1
  C  C54  1  0.67770000  0.44680000  0.95080000  1
  C  C55  1  0.17770000  0.95080000  0.44680000  1
  C  C56  1  0.56860000  0.55730000  0.81270000  1
  C  C57  1  0.06860000  0.81270000  0.55730000  1
  C  C58  1  0.46840000  0.59050000  0.75910000  1
  C  C59  1  0.96840000  0.75910000  0.59050000  1
  C  C60  1  0.00130000  0.27540000  0.06700000  1
  C  C61  1  0.50130000  0.06700000  0.27540000  1
  C  C62  1  0.74250000  0.42160000  0.91580000  1
  C  C63  1  0.24250000  0.91580000  0.42160000  1
  C  C64  1  0.08820000  0.29330000  0.03750000  1
  C  C65  1  0.58820000  0.03750000  0.29330000  1
  C  C66  1  0.57990000  0.36780000  0.95560000  1
  C  C67  1  0.07990000  0.95560000  0.36780000  1
  C  C68  1  0.20330000  0.38610000  0.89370000  1
  C  C69  1  0.70330000  0.89370000  0.38610000  1
  C  C70  1  0.10750000  0.40470000  0.82710000  1
  C  C71  1  0.60750000  0.82710000  0.40470000  1
  C  C72  1  0.91520000  0.16490000  0.06010000  1
  C  C73  1  0.41520000  0.06010000  0.16490000  1
  C  C74  1  0.71070000  0.31690000  0.88710000  1
  C  C75  1  0.21070000  0.88710000  0.31690000  1
  C  C76  1  0.54730000  0.26270000  0.92610000  1
  C  C77  1  0.04730000  0.92610000  0.26270000  1
  C  C78  1  0.61450000  0.23860000  0.89320000  1
  C  C79  1  0.11450000  0.89320000  0.23860000  1
  C  C80  1  0.44320000  0.17900000  0.93440000  1
  C  C81  1  0.94320000  0.93440000  0.17900000  1
  C  C82  1  0.06120000  0.36400000  0.71000000  1
  C  C83  1  0.56120000  0.71000000  0.36400000  1
  Cd  Cd84  1  0.00000000  0.00000000  0.00000000  1
  Cd  Cd85  1  0.50000000  0.00000000  0.00000000  1
  Cd  Cd86  1  0.75000000  0.95869000  0.04131000  1
  Cd  Cd87  1  0.25000000  0.04131000  0.95869000  1
  H  H88  1  0.52630000  0.68980000  0.28900000  1
  H  H89  1  0.02630000  0.28900000  0.68980000  1
  H  H90  1  0.40610000  0.83110000  0.12470000  1
  H  H91  1  0.90610000  0.12470000  0.83110000  1
  H  H92  1  0.00180000  0.62100000  0.33260000  1
  H  H93  1  0.50180000  0.33260000  0.62100000  1
  H  H94  1  0.87000000  0.60150000  0.30050000  1
  H  H95  1  0.37000000  0.30050000  0.60150000  1
  H  H96  1  0.24610000  0.69980000  0.13600000  1
  H  H97  1  0.74610000  0.13600000  0.69980000  1
  H  H98  1  0.83210000  0.68980000  0.12360000  1
  H  H99  1  0.33210000  0.12360000  0.68980000  1
  H  H100  1  0.96210000  0.63060000  0.16240000  1
  H  H101  1  0.46210000  0.16240000  0.63060000  1
  H  H102  1  0.57470000  0.43710000  0.31650000  1
  H  H103  1  0.07470000  0.31650000  0.43710000  1
  H  H104  1  0.90760000  0.76250000  0.98750000  1
  H  H105  1  0.40760000  0.98750000  0.76250000  1
  H  H106  1  0.47370000  0.51930000  0.20910000  1
  H  H107  1  0.97370000  0.20910000  0.51930000  1
  H  H108  1  0.73190000  0.58450000  0.12310000  1
  H  H109  1  0.23190000  0.12310000  0.58450000  1
  H  H110  1  0.86030000  0.52000000  0.15340000  1
  H  H111  1  0.36030000  0.15340000  0.52000000  1
  H  H112  1  0.59060000  0.43790000  0.21870000  1
  H  H113  1  0.09060000  0.21870000  0.43790000  1
  H  H114  1  0.06770000  0.51780000  0.13320000  1
  H  H115  1  0.56770000  0.13320000  0.51780000  1
  H  H116  1  0.46360000  0.61540000  0.02180000  1
  H  H117  1  0.96360000  0.02180000  0.61540000  1
  H  H118  1  0.37340000  0.41580000  0.21160000  1
  H  H119  1  0.87340000  0.21160000  0.41580000  1
  H  H120  1  0.67890000  0.67360000  0.94600000  1
  H  H121  1  0.17890000  0.94600000  0.67360000  1
  H  H122  1  0.49000000  0.33380000  0.22000000  1
  H  H123  1  0.99000000  0.22000000  0.33380000  1
  H  H124  1  0.06250000  0.65380000  0.87600000  1
  H  H125  1  0.56250000  0.87600000  0.65380000  1
  H  H126  1  0.57750000  0.57130000  0.94850000  1
  H  H127  1  0.07750000  0.94850000  0.57130000  1
  H  H128  1  0.42250000  0.42870000  0.05150000  1
  H  H129  1  0.92250000  0.05150000  0.42870000  1
  H  H130  1  0.93750000  0.34620000  0.12400000  1
  H  H131  1  0.43750000  0.12400000  0.34620000  1
  H  H132  1  0.51000000  0.66620000  0.78000000  1
  H  H133  1  0.01000000  0.78000000  0.66620000  1
  H  H134  1  0.32110000  0.32640000  0.05400000  1
  H  H135  1  0.82110000  0.05400000  0.32640000  1
  H  H136  1  0.62660000  0.58420000  0.78840000  1
  H  H137  1  0.12660000  0.78840000  0.58420000  1
  H  H138  1  0.53640000  0.38460000  0.97820000  1
  H  H139  1  0.03640000  0.97820000  0.38460000  1
  H  H140  1  0.93230000  0.48220000  0.86680000  1
  H  H141  1  0.43230000  0.86680000  0.48220000  1
  H  H142  1  0.40940000  0.56210000  0.78130000  1
  H  H143  1  0.90940000  0.78130000  0.56210000  1
  H  H144  1  0.13970000  0.48000000  0.84660000  1
  H  H145  1  0.63970000  0.84660000  0.48000000  1
  H  H146  1  0.26810000  0.41550000  0.87690000  1
  H  H147  1  0.76810000  0.87690000  0.41550000  1
  H  H148  1  0.52630000  0.48070000  0.79090000  1
  H  H149  1  0.02630000  0.79090000  0.48070000  1
  H  H150  1  0.09240000  0.23750000  0.01250000  1
  H  H151  1  0.59240000  0.01250000  0.23750000  1
  H  H152  1  0.42530000  0.56290000  0.68350000  1
  H  H153  1  0.92530000  0.68350000  0.56290000  1
  H  H154  1  0.03790000  0.36940000  0.83760000  1
  H  H155  1  0.53790000  0.83760000  0.36940000  1
  H  H156  1  0.16790000  0.31020000  0.87640000  1
  H  H157  1  0.66790000  0.87640000  0.31020000  1
  H  H158  1  0.75390000  0.30020000  0.86400000  1
  H  H159  1  0.25390000  0.86400000  0.30020000  1
  H  H160  1  0.13000000  0.39850000  0.69950000  1
  H  H161  1  0.63000000  0.69950000  0.39850000  1
  H  H162  1  0.99820000  0.37900000  0.66740000  1
  H  H163  1  0.49820000  0.66740000  0.37900000  1
  H  H164  1  0.59390000  0.16890000  0.87530000  1
  H  H165  1  0.09390000  0.87530000  0.16890000  1
  H  H166  1  0.47370000  0.31020000  0.71100000  1
  H  H167  1  0.97370000  0.71100000  0.31020000  1
  O  O168  1  0.90870000  0.90365000  0.08195000  1
  O  O169  1  0.40870000  0.08195000  0.90365000  1
  O  O170  1  0.09610000  0.91249000  0.99311000  1
  O  O171  1  0.59610000  0.99311000  0.91249000  1
  O  O172  1  0.60800000  0.79420000  0.02940000  1
  O  O173  1  0.10800000  0.02940000  0.79420000  1
  O  O174  1  0.14460000  0.85030000  0.89470000  1
  O  O175  1  0.64460000  0.89470000  0.85030000  1
  O  O176  1  0.85540000  0.14970000  0.10530000  1
  O  O177  1  0.35540000  0.10530000  0.14970000  1
  O  O178  1  0.39200000  0.20580000  0.97060000  1
  O  O179  1  0.89200000  0.97060000  0.20580000  1
  O  O180  1  0.90390000  0.08751000  0.00689000  1
  O  O181  1  0.40390000  0.00689000  0.08751000  1
  O  O182  1  0.09130000  0.09635000  0.91805000  1
  O  O183  1  0.59130000  0.91805000  0.09635000  1
