# generated using pymatgen
data_Zn3H12(C11O5)2
_symmetry_space_group_name_H-M   'P 1'
_cell_length_a   6.39140000
_cell_length_b   10.86100000
_cell_length_c   17.00300000
_cell_angle_alpha   105.82800000
_cell_angle_beta   90.00000000
_cell_angle_gamma   90.00000000
_symmetry_Int_Tables_number   1
_chemical_formula_structural   Zn3H12(C11O5)2
_chemical_formula_sum   'Zn6 H24 C44 O20'
_cell_volume   1135.54598996
_cell_formula_units_Z   2
loop_
 _symmetry_equiv_pos_site_id
 _symmetry_equiv_pos_as_xyz
  1  'x, y, z'
loop_
 _atom_site_type_symbol
 _atom_site_label
 _atom_site_symmetry_multiplicity
 _atom_site_fract_x
 _atom_site_fract_y
 _atom_site_fract_z
 _atom_site_occupancy
  Zn  Zn0  1  0.49808000  0.53085000  0.41562000  1
  Zn  Zn1  1  0.00192000  0.53085000  0.91562000  1
  Zn  Zn2  1  0.00000000  0.50000000  0.50000000  1
  Zn  Zn3  1  0.50000000  0.50000000  1.00000000  1
  Zn  Zn4  1  0.99808000  0.46915000  0.08438000  1
  Zn  Zn5  1  0.50192000  0.46915000  0.58438000  1
  H  H6  1  0.76130000  0.97470000  0.30540000  1
  H  H7  1  0.73870000  0.97470000  0.80540000  1
  H  H8  1  0.46910000  0.94940000  0.58760000  1
  H  H9  1  0.03090000  0.94940000  0.08760000  1
  H  H10  1  0.88200000  0.85390000  0.56500000  1
  H  H11  1  0.61800000  0.85390000  0.06500000  1
  H  H12  1  0.82910000  0.80340000  0.69760000  1
  H  H13  1  0.67090000  0.80340000  0.19760000  1
  H  H14  1  0.38800000  0.78810000  0.80040000  1
  H  H15  1  0.11200000  0.78810000  0.30040000  1
  H  H16  1  0.80940000  0.64690000  0.04460000  1
  H  H17  1  0.69060000  0.64690000  0.54460000  1
  H  H18  1  0.30940000  0.35310000  0.45540000  1
  H  H19  1  0.19060000  0.35310000  0.95540000  1
  H  H20  1  0.88800000  0.21190000  0.69960000  1
  H  H21  1  0.61200000  0.21190000  0.19960000  1
  H  H22  1  0.32910000  0.19660000  0.80240000  1
  H  H23  1  0.17090000  0.19660000  0.30240000  1
  H  H24  1  0.38200000  0.14610000  0.93500000  1
  H  H25  1  0.11800000  0.14610000  0.43500000  1
  H  H26  1  0.96910000  0.05060000  0.91240000  1
  H  H27  1  0.53090000  0.05060000  0.41240000  1
  H  H28  1  0.26130000  0.02530000  0.19460000  1
  H  H29  1  0.23870000  0.02530000  0.69460000  1
  C  C30  1  0.49360000  0.98130000  0.36900000  1
  C  C31  1  0.00640000  0.98130000  0.86900000  1
  C  C32  1  0.34730000  0.96360000  0.93800000  1
  C  C33  1  0.15270000  0.96360000  0.43800000  1
  C  C34  1  0.86900000  0.93630000  0.80470000  1
  C  C35  1  0.63100000  0.93630000  0.30470000  1
  C  C36  1  0.30230000  0.92390000  0.36890000  1
  C  C37  1  0.19770000  0.92390000  0.86890000  1
  C  C38  1  0.93110000  0.91360000  0.53920000  1
  C  C39  1  0.56890000  0.91360000  0.03920000  1
  C  C40  1  0.41630000  0.87650000  0.98010000  1
  C  C41  1  0.08370000  0.87650000  0.48010000  1
  C  C42  1  0.92440000  0.83450000  0.73960000  1
  C  C43  1  0.57560000  0.83450000  0.23960000  1
  C  C44  1  0.25580000  0.82440000  0.80160000  1
  C  C45  1  0.24420000  0.82440000  0.30160000  1
  C  C46  1  0.38040000  0.77800000  0.23590000  1
  C  C47  1  0.11960000  0.77800000  0.73590000  1
  C  C48  1  0.32990000  0.74340000  0.96400000  1
  C  C49  1  0.17010000  0.74340000  0.46400000  1
  C  C50  1  0.31540000  0.66940000  0.16470000  1
  C  C51  1  0.18460000  0.66940000  0.66470000  1
  C  C52  1  0.81540000  0.33060000  0.33530000  1
  C  C53  1  0.68460000  0.33060000  0.83530000  1
  C  C54  1  0.82990000  0.25660000  0.53600000  1
  C  C55  1  0.67010000  0.25660000  0.03600000  1
  C  C56  1  0.88040000  0.22200000  0.26410000  1
  C  C57  1  0.61960000  0.22200000  0.76410000  1
  C  C58  1  0.75580000  0.17560000  0.69840000  1
  C  C59  1  0.74420000  0.17560000  0.19840000  1
  C  C60  1  0.42440000  0.16550000  0.76040000  1
  C  C61  1  0.07560000  0.16550000  0.26040000  1
  C  C62  1  0.91630000  0.12350000  0.51990000  1
  C  C63  1  0.58370000  0.12350000  0.01990000  1
  C  C64  1  0.43110000  0.08640000  0.96080000  1
  C  C65  1  0.06890000  0.08640000  0.46080000  1
  C  C66  1  0.80230000  0.07610000  0.13110000  1
  C  C67  1  0.69770000  0.07610000  0.63110000  1
  C  C68  1  0.36900000  0.06370000  0.69530000  1
  C  C69  1  0.13100000  0.06370000  0.19530000  1
  C  C70  1  0.84730000  0.03640000  0.56200000  1
  C  C71  1  0.65270000  0.03640000  0.06200000  1
  C  C72  1  0.99360000  0.01870000  0.13100000  1
  C  C73  1  0.50640000  0.01870000  0.63100000  1
  O  O74  1  0.36080000  0.72400000  0.46540000  1
  O  O75  1  0.13920000  0.72400000  0.96540000  1
  O  O76  1  0.46770000  0.65550000  0.95010000  1
  O  O77  1  0.03230000  0.65550000  0.45010000  1
  O  O78  1  0.37210000  0.64030000  0.65540000  1
  O  O79  1  0.12790000  0.64030000  0.15540000  1
  O  O80  1  0.46070000  0.61750000  0.11920000  1
  O  O81  1  0.03930000  0.61750000  0.61920000  1
  O  O82  1  0.80940000  0.55510000  0.01670000  1
  O  O83  1  0.69060000  0.55510000  0.51670000  1
  O  O84  1  0.30940000  0.44490000  0.48330000  1
  O  O85  1  0.19060000  0.44490000  0.98330000  1
  O  O86  1  0.96070000  0.38250000  0.38080000  1
  O  O87  1  0.53930000  0.38250000  0.88080000  1
  O  O88  1  0.87210000  0.35970000  0.84460000  1
  O  O89  1  0.62790000  0.35970000  0.34460000  1
  O  O90  1  0.96770000  0.34450000  0.54990000  1
  O  O91  1  0.53230000  0.34450000  0.04990000  1
  O  O92  1  0.86080000  0.27600000  0.03460000  1
  O  O93  1  0.63920000  0.27600000  0.53460000  1
