# generated using pymatgen
data_TmH9(C3O2)3
_symmetry_space_group_name_H-M   'P 1'
_cell_length_a   9.54300000
_cell_length_b   13.82150000
_cell_length_c   15.29930000
_cell_angle_alpha   90.00000000
_cell_angle_beta   93.38800000
_cell_angle_gamma   90.00000000
_symmetry_Int_Tables_number   1
_chemical_formula_structural   TmH9(C3O2)3
_chemical_formula_sum   'Tm4 H36 C36 O24'
_cell_volume   2014.42893234
_cell_formula_units_Z   4
loop_
 _symmetry_equiv_pos_site_id
 _symmetry_equiv_pos_as_xyz
  1  'x, y, z'
loop_
 _atom_site_type_symbol
 _atom_site_label
 _atom_site_symmetry_multiplicity
 _atom_site_fract_x
 _atom_site_fract_y
 _atom_site_fract_z
 _atom_site_occupancy
  Tm  Tm0  1  0.04323000  0.38863000  0.41444000  1
  Tm  Tm1  1  0.45677000  0.88863000  0.08556000  1
  Tm  Tm2  1  0.54323000  0.11137000  0.91444000  1
  Tm  Tm3  1  0.95677000  0.61137000  0.58556000  1
  H  H4  1  0.01510000  0.76490000  0.85460000  1
  H  H5  1  0.05210000  0.03750000  0.92890000  1
  H  H6  1  0.05320000  0.03650000  0.82640000  1
  H  H7  1  0.09310000  0.09700000  0.07510000  1
  H  H8  1  0.10760000  0.09160000  0.25990000  1
  H  H9  1  0.16260000  0.88810000  0.93670000  1
  H  H10  1  0.16920000  0.89380000  0.75220000  1
  H  H11  1  0.19310000  0.16350000  0.20370000  1
  H  H12  1  0.23700000  0.81180000  0.81170000  1
  H  H13  1  0.26300000  0.31180000  0.68830000  1
  H  H14  1  0.30690000  0.66350000  0.29630000  1
  H  H15  1  0.33080000  0.39380000  0.74780000  1
  H  H16  1  0.33740000  0.38810000  0.56330000  1
  H  H17  1  0.39240000  0.59160000  0.24010000  1
  H  H18  1  0.40690000  0.59700000  0.42490000  1
  H  H19  1  0.44680000  0.53650000  0.67360000  1
  H  H20  1  0.44790000  0.53750000  0.57110000  1
  H  H21  1  0.48490000  0.26490000  0.64540000  1
  H  H22  1  0.51510000  0.73510000  0.35460000  1
  H  H23  1  0.55210000  0.46250000  0.42890000  1
  H  H24  1  0.55320000  0.46350000  0.32640000  1
  H  H25  1  0.59310000  0.40300000  0.57510000  1
  H  H26  1  0.60760000  0.40840000  0.75990000  1
  H  H27  1  0.66260000  0.61190000  0.43670000  1
  H  H28  1  0.66920000  0.60620000  0.25220000  1
  H  H29  1  0.69310000  0.33650000  0.70370000  1
  H  H30  1  0.73700000  0.68820000  0.31170000  1
  H  H31  1  0.76300000  0.18820000  0.18830000  1
  H  H32  1  0.80690000  0.83650000  0.79630000  1
  H  H33  1  0.83080000  0.10620000  0.24780000  1
  H  H34  1  0.83740000  0.11190000  0.06330000  1
  H  H35  1  0.89240000  0.90840000  0.74010000  1
  H  H36  1  0.90690000  0.90300000  0.92490000  1
  H  H37  1  0.94680000  0.96350000  0.17360000  1
  H  H38  1  0.94790000  0.96250000  0.07110000  1
  H  H39  1  0.98490000  0.23510000  0.14540000  1
  C  C40  1  0.00330000  0.73340000  0.72370000  1
  C  C41  1  0.02020000  0.80280000  0.80070000  1
  C  C42  1  0.04680000  0.99590000  0.87770000  1
  C  C43  1  0.09360000  0.05650000  0.12770000  1
  C  C44  1  0.10620000  0.12720000  0.20520000  1
  C  C45  1  0.16010000  0.85760000  0.80590000  1
  C  C46  1  0.16860000  0.92650000  0.88320000  1
  C  C47  1  0.19240000  0.47970000  0.61110000  1
  C  C48  1  0.21890000  0.99150000  0.12280000  1
  C  C49  1  0.28110000  0.49150000  0.37720000  1
  C  C50  1  0.30760000  0.97970000  0.88890000  1
  C  C51  1  0.33140000  0.42650000  0.61680000  1
  C  C52  1  0.33990000  0.35760000  0.69410000  1
  C  C53  1  0.39380000  0.62720000  0.29480000  1
  C  C54  1  0.40640000  0.55650000  0.37230000  1
  C  C55  1  0.45320000  0.49590000  0.62230000  1
  C  C56  1  0.47980000  0.30280000  0.69930000  1
  C  C57  1  0.49670000  0.23340000  0.77630000  1
  C  C58  1  0.50330000  0.76660000  0.22370000  1
  C  C59  1  0.52020000  0.69720000  0.30070000  1
  C  C60  1  0.54680000  0.50410000  0.37770000  1
  C  C61  1  0.59360000  0.44350000  0.62770000  1
  C  C62  1  0.60620000  0.37280000  0.70520000  1
  C  C63  1  0.66010000  0.64240000  0.30590000  1
  C  C64  1  0.66860000  0.57350000  0.38320000  1
  C  C65  1  0.69240000  0.02030000  0.11110000  1
  C  C66  1  0.71890000  0.50850000  0.62280000  1
  C  C67  1  0.78110000  0.00850000  0.87720000  1
  C  C68  1  0.80760000  0.52030000  0.38890000  1
  C  C69  1  0.83140000  0.07350000  0.11680000  1
  C  C70  1  0.83990000  0.14240000  0.19410000  1
  C  C71  1  0.89380000  0.87280000  0.79480000  1
  C  C72  1  0.90640000  0.94350000  0.87230000  1
  C  C73  1  0.95320000  0.00410000  0.12230000  1
  C  C74  1  0.97980000  0.19720000  0.19930000  1
  C  C75  1  0.99670000  0.26660000  0.27630000  1
  O  O76  1  0.06690000  0.74720000  0.65630000  1
  O  O77  1  0.07940000  0.33690000  0.26990000  1
  O  O78  1  0.10580000  0.46150000  0.54720000  1
  O  O79  1  0.15940000  0.52840000  0.36530000  1
  O  O80  1  0.16230000  0.54360000  0.66380000  1
  O  O81  1  0.20640000  0.90470000  0.10140000  1
  O  O82  1  0.29360000  0.40470000  0.39860000  1
  O  O83  1  0.33770000  0.04360000  0.83620000  1
  O  O84  1  0.34060000  0.02840000  0.13470000  1
  O  O85  1  0.39420000  0.96150000  0.95280000  1
  O  O86  1  0.42060000  0.83690000  0.23010000  1
  O  O87  1  0.43310000  0.24720000  0.84370000  1
  O  O88  1  0.56690000  0.75280000  0.15630000  1
  O  O89  1  0.57940000  0.16310000  0.76990000  1
  O  O90  1  0.60580000  0.03850000  0.04720000  1
  O  O91  1  0.65940000  0.97160000  0.86530000  1
  O  O92  1  0.66230000  0.95640000  0.16380000  1
  O  O93  1  0.70640000  0.59530000  0.60140000  1
  O  O94  1  0.79360000  0.09530000  0.89860000  1
  O  O95  1  0.83770000  0.45640000  0.33620000  1
  O  O96  1  0.84060000  0.47160000  0.63470000  1
  O  O97  1  0.89420000  0.53850000  0.45280000  1
  O  O98  1  0.92060000  0.66310000  0.73010000  1
  O  O99  1  0.93310000  0.25280000  0.34370000  1
