# generated using pymatgen
data_Zn2H10C11NO7
_symmetry_space_group_name_H-M   'P 1'
_cell_length_a   10.33490000
_cell_length_b   11.89620000
_cell_length_c   20.28940000
_cell_angle_alpha   90.00000000
_cell_angle_beta   90.00000000
_cell_angle_gamma   90.00000000
_symmetry_Int_Tables_number   1
_chemical_formula_structural   Zn2H10C11NO7
_chemical_formula_sum   'Zn8 H40 C44 N4 O28'
_cell_volume   2494.50133082
_cell_formula_units_Z   4
loop_
 _symmetry_equiv_pos_site_id
 _symmetry_equiv_pos_as_xyz
  1  'x, y, z'
loop_
 _atom_site_type_symbol
 _atom_site_label
 _atom_site_symmetry_multiplicity
 _atom_site_fract_x
 _atom_site_fract_y
 _atom_site_fract_z
 _atom_site_occupancy
  Zn  Zn0  1  0.04438000  0.41675000  0.49026000  1
  Zn  Zn1  1  0.14246000  0.67650000  0.99072000  1
  Zn  Zn2  1  0.35754000  0.32350000  0.49072000  1
  Zn  Zn3  1  0.45562000  0.58325000  0.99026000  1
  Zn  Zn4  1  0.54438000  0.08325000  0.50974000  1
  Zn  Zn5  1  0.64246000  0.82350000  0.00928000  1
  Zn  Zn6  1  0.85754000  0.17650000  0.50928000  1
  Zn  Zn7  1  0.95562000  0.91675000  0.00974000  1
  H  H8  1  0.01160000  0.64280000  0.78610000  1
  H  H9  1  0.03090000  0.02690000  0.70710000  1
  H  H10  1  0.04180000  0.58020000  0.84570000  1
  H  H11  1  0.05040000  0.50520000  0.29370000  1
  H  H12  1  0.05700000  0.51120000  0.68890000  1
  H  H13  1  0.06030000  0.55300000  0.18180000  1
  H  H14  1  0.13930000  0.93200000  0.11940000  1
  H  H15  1  0.21280000  0.03910000  0.62070000  1
  H  H16  1  0.23400000  0.96800000  0.01100000  1
  H  H17  1  0.24170000  0.83570000  0.12740000  1
  H  H18  1  0.25830000  0.16430000  0.62740000  1
  H  H19  1  0.26600000  0.03200000  0.51100000  1
  H  H20  1  0.28720000  0.96090000  0.12070000  1
  H  H21  1  0.36070000  0.06800000  0.61940000  1
  H  H22  1  0.43970000  0.44700000  0.68180000  1
  H  H23  1  0.44300000  0.48880000  0.18890000  1
  H  H24  1  0.44960000  0.49480000  0.79370000  1
  H  H25  1  0.45820000  0.41980000  0.34570000  1
  H  H26  1  0.46910000  0.97310000  0.20710000  1
  H  H27  1  0.48840000  0.35720000  0.28610000  1
  H  H28  1  0.51160000  0.85720000  0.21390000  1
  H  H29  1  0.53090000  0.47310000  0.29290000  1
  H  H30  1  0.54180000  0.91980000  0.15430000  1
  H  H31  1  0.55040000  0.99480000  0.70630000  1
  H  H32  1  0.55700000  0.98880000  0.31110000  1
  H  H33  1  0.56030000  0.94700000  0.81820000  1
  H  H34  1  0.63930000  0.56800000  0.88060000  1
  H  H35  1  0.71280000  0.46090000  0.37930000  1
  H  H36  1  0.73400000  0.53200000  0.98900000  1
  H  H37  1  0.74170000  0.66430000  0.87260000  1
  H  H38  1  0.75830000  0.33570000  0.37260000  1
  H  H39  1  0.76600000  0.46800000  0.48900000  1
  H  H40  1  0.78720000  0.53910000  0.87930000  1
  H  H41  1  0.86070000  0.43200000  0.38060000  1
  H  H42  1  0.93970000  0.05300000  0.31820000  1
  H  H43  1  0.94300000  0.01120000  0.81110000  1
  H  H44  1  0.94960000  0.00520000  0.20630000  1
  H  H45  1  0.95820000  0.08020000  0.65430000  1
  H  H46  1  0.96910000  0.52690000  0.79290000  1
  H  H47  1  0.98840000  0.14280000  0.71390000  1
  C  C48  1  0.12920000  0.50270000  0.27160000  1
  C  C49  1  0.13440000  0.53150000  0.20460000  1
  C  C50  1  0.13790000  0.50820000  0.70900000  1
  C  C51  1  0.14700000  0.17150000  0.51350000  1
  C  C52  1  0.14850000  0.53840000  0.77350000  1
  C  C53  1  0.22170000  0.44140000  0.37790000  1
  C  C54  1  0.22400000  0.90680000  0.10680000  1
  C  C55  1  0.22990000  0.89340000  0.03140000  1
  C  C56  1  0.23250000  0.44390000  0.60250000  1
  C  C57  1  0.24120000  0.47010000  0.30570000  1
  C  C58  1  0.24230000  0.47350000  0.67240000  1
  C  C59  1  0.25770000  0.52650000  0.17240000  1
  C  C60  1  0.25880000  0.52990000  0.80570000  1
  C  C61  1  0.26750000  0.55610000  0.10250000  1
  C  C62  1  0.27010000  0.10660000  0.53140000  1
  C  C63  1  0.27600000  0.09320000  0.60680000  1
  C  C64  1  0.27830000  0.55860000  0.87790000  1
  C  C65  1  0.35150000  0.46160000  0.27350000  1
  C  C66  1  0.35300000  0.82850000  0.01350000  1
  C  C67  1  0.36210000  0.49180000  0.20900000  1
  C  C68  1  0.36560000  0.46850000  0.70460000  1
  C  C69  1  0.37080000  0.49730000  0.77160000  1
  C  C70  1  0.62920000  0.99730000  0.72840000  1
  C  C71  1  0.63440000  0.96850000  0.79540000  1
  C  C72  1  0.63790000  0.99180000  0.29100000  1
  C  C73  1  0.64700000  0.32850000  0.48650000  1
  C  C74  1  0.64850000  0.96160000  0.22650000  1
  C  C75  1  0.72170000  0.05860000  0.62210000  1
  C  C76  1  0.72400000  0.59320000  0.89320000  1
  C  C77  1  0.72990000  0.60660000  0.96860000  1
  C  C78  1  0.73250000  0.05610000  0.39750000  1
  C  C79  1  0.74120000  0.02990000  0.69430000  1
  C  C80  1  0.74230000  0.02650000  0.32760000  1
  C  C81  1  0.75770000  0.97350000  0.82760000  1
  C  C82  1  0.75880000  0.97010000  0.19430000  1
  C  C83  1  0.76750000  0.94390000  0.89750000  1
  C  C84  1  0.77010000  0.39340000  0.46860000  1
  C  C85  1  0.77600000  0.40680000  0.39320000  1
  C  C86  1  0.77830000  0.94140000  0.12210000  1
  C  C87  1  0.85150000  0.03840000  0.72650000  1
  C  C88  1  0.85300000  0.67150000  0.98650000  1
  C  C89  1  0.86210000  0.00820000  0.79100000  1
  C  C90  1  0.86560000  0.03150000  0.29540000  1
  C  C91  1  0.87080000  0.00270000  0.22840000  1
  N  N92  1  0.03200000  0.57550000  0.80220000  1
  N  N93  1  0.46800000  0.42450000  0.30220000  1
  N  N94  1  0.53200000  0.92450000  0.19780000  1
  N  N95  1  0.96800000  0.07550000  0.69780000  1
  O  O96  1  0.04130000  0.12470000  0.52460000  1
  O  O97  1  0.11520000  0.45700000  0.40360000  1
  O  O98  1  0.11920000  0.83800000  0.00780000  1
  O  O99  1  0.12200000  0.45470000  0.57650000  1
  O  O100  1  0.16040000  0.26840000  0.49120000  1
  O  O101  1  0.16750000  0.58750000  0.07300000  1
  O  O102  1  0.17960000  0.59800000  0.90680000  1
  O  O103  1  0.32040000  0.40200000  0.40680000  1
  O  O104  1  0.33250000  0.41250000  0.57300000  1
  O  O105  1  0.33960000  0.73160000  0.99120000  1
  O  O106  1  0.37800000  0.54530000  0.07650000  1
  O  O107  1  0.38080000  0.16200000  0.50780000  1
  O  O108  1  0.38480000  0.54300000  0.90360000  1
  O  O109  1  0.45870000  0.87530000  0.02460000  1
  O  O110  1  0.54130000  0.37530000  0.47540000  1
  O  O111  1  0.61520000  0.04300000  0.59640000  1
  O  O112  1  0.61920000  0.66200000  0.99220000  1
  O  O113  1  0.62200000  0.04530000  0.42350000  1
  O  O114  1  0.66040000  0.23160000  0.50880000  1
  O  O115  1  0.66750000  0.91250000  0.92700000  1
  O  O116  1  0.67960000  0.90200000  0.09320000  1
  O  O117  1  0.82040000  0.09800000  0.59320000  1
  O  O118  1  0.83250000  0.08750000  0.42700000  1
  O  O119  1  0.83960000  0.76840000  0.00880000  1
  O  O120  1  0.87800000  0.95470000  0.92350000  1
  O  O121  1  0.88080000  0.33800000  0.49220000  1
  O  O122  1  0.88480000  0.95700000  0.09640000  1
  O  O123  1  0.95870000  0.62470000  0.97540000  1
