# generated using pymatgen
data_CuH7C13NO4
_symmetry_space_group_name_H-M   'P 1'
_cell_length_a   14.20700000
_cell_length_b   14.56400000
_cell_length_c   26.22000000
_cell_angle_alpha   90.00000000
_cell_angle_beta   90.00000000
_cell_angle_gamma   107.08000000
_symmetry_Int_Tables_number   1
_chemical_formula_structural   CuH7C13NO4
_chemical_formula_sum   'Cu8 H56 C104 N8 O32'
_cell_volume   5185.92460826
_cell_formula_units_Z   8
loop_
 _symmetry_equiv_pos_site_id
 _symmetry_equiv_pos_as_xyz
  1  'x, y, z'
loop_
 _atom_site_type_symbol
 _atom_site_label
 _atom_site_symmetry_multiplicity
 _atom_site_fract_x
 _atom_site_fract_y
 _atom_site_fract_z
 _atom_site_occupancy
  Cu  Cu0  1  0.06376000  0.43549000  0.70274000  1
  Cu  Cu1  1  0.08902000  0.02727000  0.97975000  1
  Cu  Cu2  1  0.41098000  0.97273000  0.47975000  1
  Cu  Cu3  1  0.43624000  0.56451000  0.20274000  1
  Cu  Cu4  1  0.56376000  0.43549000  0.79726000  1
  Cu  Cu5  1  0.58902000  0.02727000  0.52025000  1
  Cu  Cu6  1  0.91098000  0.97273000  0.02025000  1
  Cu  Cu7  1  0.93624000  0.56451000  0.29726000  1
  H  H8  1  0.03130000  0.44710000  0.23100000  1
  H  H9  1  0.03650000  0.20190000  0.85860000  1
  H  H10  1  0.06130000  0.88160000  0.38710000  1
  H  H11  1  0.06680000  0.77940000  0.88580000  1
  H  H12  1  0.07530000  0.73910000  0.35250000  1
  H  H13  1  0.09090000  0.09550000  0.60390000  1
  H  H14  1  0.14460000  0.44880000  0.17420000  1
  H  H15  1  0.16120000  0.68280000  0.87670000  1
  H  H16  1  0.18330000  0.70860000  0.20240000  1
  H  H17  1  0.21060000  0.35660000  0.66860000  1
  H  H18  1  0.21450000  0.35830000  0.33280000  1
  H  H19  1  0.21910000  0.25770000  0.08240000  1
  H  H20  1  0.23460000  0.87390000  0.07570000  1
  H  H21  1  0.24060000  0.53520000  0.76140000  1
  H  H22  1  0.25940000  0.46480000  0.26140000  1
  H  H23  1  0.26540000  0.12610000  0.57570000  1
  H  H24  1  0.28090000  0.74230000  0.58240000  1
  H  H25  1  0.28550000  0.64170000  0.83280000  1
  H  H26  1  0.28940000  0.64340000  0.16860000  1
  H  H27  1  0.31670000  0.29140000  0.70240000  1
  H  H28  1  0.33880000  0.31720000  0.37670000  1
  H  H29  1  0.35540000  0.55120000  0.67420000  1
  H  H30  1  0.40910000  0.90450000  0.10390000  1
  H  H31  1  0.42470000  0.26090000  0.85250000  1
  H  H32  1  0.43320000  0.22060000  0.38580000  1
  H  H33  1  0.43870000  0.11840000  0.88710000  1
  H  H34  1  0.46350000  0.79810000  0.35860000  1
  H  H35  1  0.46870000  0.55290000  0.73100000  1
  H  H36  1  0.53130000  0.44710000  0.26900000  1
  H  H37  1  0.53650000  0.20190000  0.64140000  1
  H  H38  1  0.56130000  0.88160000  0.11290000  1
  H  H39  1  0.56680000  0.77940000  0.61420000  1
  H  H40  1  0.57530000  0.73910000  0.14750000  1
  H  H41  1  0.59090000  0.09550000  0.89610000  1
  H  H42  1  0.64460000  0.44880000  0.32580000  1
  H  H43  1  0.66120000  0.68280000  0.62330000  1
  H  H44  1  0.68330000  0.70860000  0.29760000  1
  H  H45  1  0.71060000  0.35660000  0.83140000  1
  H  H46  1  0.71450000  0.35830000  0.16720000  1
  H  H47  1  0.71910000  0.25770000  0.41760000  1
  H  H48  1  0.73460000  0.87390000  0.42430000  1
  H  H49  1  0.74060000  0.53520000  0.73860000  1
  H  H50  1  0.75940000  0.46480000  0.23860000  1
  H  H51  1  0.76540000  0.12610000  0.92430000  1
  H  H52  1  0.78090000  0.74230000  0.91760000  1
  H  H53  1  0.78550000  0.64170000  0.66720000  1
  H  H54  1  0.78940000  0.64340000  0.33140000  1
  H  H55  1  0.81670000  0.29140000  0.79760000  1
  H  H56  1  0.83880000  0.31720000  0.12330000  1
  H  H57  1  0.85540000  0.55120000  0.82580000  1
  H  H58  1  0.90910000  0.90450000  0.39610000  1
  H  H59  1  0.92470000  0.26090000  0.64750000  1
  H  H60  1  0.93320000  0.22060000  0.11420000  1
  H  H61  1  0.93870000  0.11840000  0.61290000  1
  H  H62  1  0.96350000  0.79810000  0.14140000  1
  H  H63  1  0.96870000  0.55290000  0.76900000  1
  C  C64  1  0.00020000  0.25760000  0.11740000  1
  C  C65  1  0.00420000  0.83340000  0.37590000  1
  C  C66  1  0.00870000  0.31140000  0.78190000  1
  C  C67  1  0.01280000  0.74980000  0.35550000  1
  C  C68  1  0.02840000  0.34540000  0.14900000  1
  C  C69  1  0.03000000  0.79690000  0.14090000  1
  C  C70  1  0.03290000  0.56870000  0.78340000  1
  C  C71  1  0.04810000  0.14370000  0.05790000  1
  C  C72  1  0.05190000  0.62500000  0.82610000  1
  C  C73  1  0.05750000  0.90440000  0.06500000  1
  C  C74  1  0.06890000  0.74590000  0.17760000  1
  C  C75  1  0.07380000  0.23070000  0.09250000  1
  C  C76  1  0.08590000  0.15260000  0.61970000  1
  C  C77  1  0.09930000  0.84620000  0.10320000  1
  C  C78  1  0.12610000  0.39280000  0.15350000  1
  C  C79  1  0.14650000  0.64770000  0.84570000  1
  C  C80  1  0.15580000  0.30580000  0.65740000  1
  C  C81  1  0.16150000  0.74270000  0.17630000  1
  C  C82  1  0.16980000  0.27930000  0.09870000  1
  C  C83  1  0.17380000  0.22130000  0.63830000  1
  C  C84  1  0.19190000  0.84060000  0.10200000  1
  C  C85  1  0.19290000  0.55880000  0.77790000  1
  C  C86  1  0.19480000  0.58320000  0.63800000  1
  C  C87  1  0.19750000  0.36530000  0.13050000  1
  C  C88  1  0.21930000  0.62030000  0.82120000  1
  C  C89  1  0.22880000  0.78780000  0.13780000  1
  C  C90  1  0.27120000  0.21220000  0.63780000  1
  C  C91  1  0.28070000  0.37970000  0.32120000  1
  C  C92  1  0.30250000  0.63470000  0.63050000  1
  C  C93  1  0.30520000  0.41680000  0.13800000  1
  C  C94  1  0.30710000  0.44120000  0.27790000  1
  C  C95  1  0.30810000  0.15940000  0.60200000  1
  C  C96  1  0.32620000  0.77870000  0.13830000  1
  C  C97  1  0.33020000  0.72070000  0.59870000  1
  C  C98  1  0.33850000  0.25730000  0.67630000  1
  C  C99  1  0.34420000  0.69420000  0.15740000  1
  C  C100  1  0.35350000  0.35230000  0.34570000  1
  C  C101  1  0.37390000  0.60720000  0.65350000  1
  C  C102  1  0.40070000  0.15380000  0.60320000  1
  C  C103  1  0.41410000  0.84740000  0.11970000  1
  C  C104  1  0.42620000  0.76930000  0.59250000  1
  C  C105  1  0.43110000  0.25410000  0.67760000  1
  C  C106  1  0.44250000  0.09560000  0.56500000  1
  C  C107  1  0.44810000  0.37500000  0.32610000  1
  C  C108  1  0.45190000  0.85630000  0.55790000  1
  C  C109  1  0.46710000  0.43130000  0.28340000  1
  C  C110  1  0.47000000  0.20310000  0.64090000  1
  C  C111  1  0.47160000  0.65460000  0.64900000  1
  C  C112  1  0.48720000  0.25020000  0.85550000  1
  C  C113  1  0.49130000  0.68860000  0.28190000  1
  C  C114  1  0.49580000  0.16660000  0.87590000  1
  C  C115  1  0.49980000  0.74240000  0.61740000  1
  C  C116  1  0.50020000  0.25760000  0.38260000  1
  C  C117  1  0.50420000  0.83340000  0.12410000  1
  C  C118  1  0.50870000  0.31140000  0.71810000  1
  C  C119  1  0.51280000  0.74980000  0.14450000  1
  C  C120  1  0.52840000  0.34540000  0.35100000  1
  C  C121  1  0.53000000  0.79690000  0.35910000  1
  C  C122  1  0.53290000  0.56870000  0.71660000  1
  C  C123  1  0.54810000  0.14370000  0.44210000  1
  C  C124  1  0.55190000  0.62500000  0.67390000  1
  C  C125  1  0.55750000  0.90440000  0.43500000  1
  C  C126  1  0.56890000  0.74590000  0.32240000  1
  C  C127  1  0.57380000  0.23070000  0.40750000  1
  C  C128  1  0.58590000  0.15260000  0.88030000  1
  C  C129  1  0.59930000  0.84620000  0.39680000  1
  C  C130  1  0.62610000  0.39280000  0.34650000  1
  C  C131  1  0.64650000  0.64770000  0.65430000  1
  C  C132  1  0.65580000  0.30580000  0.84260000  1
  C  C133  1  0.66150000  0.74270000  0.32370000  1
  C  C134  1  0.66980000  0.27930000  0.40130000  1
  C  C135  1  0.67380000  0.22130000  0.86170000  1
  C  C136  1  0.69190000  0.84060000  0.39800000  1
  C  C137  1  0.69290000  0.55880000  0.72210000  1
  C  C138  1  0.69480000  0.58320000  0.86200000  1
  C  C139  1  0.69750000  0.36530000  0.36950000  1
  C  C140  1  0.71930000  0.62030000  0.67880000  1
  C  C141  1  0.72880000  0.78780000  0.36220000  1
  C  C142  1  0.77120000  0.21220000  0.86220000  1
  C  C143  1  0.78070000  0.37970000  0.17880000  1
  C  C144  1  0.80250000  0.63470000  0.86950000  1
  C  C145  1  0.80520000  0.41680000  0.36200000  1
  C  C146  1  0.80710000  0.44120000  0.22210000  1
  C  C147  1  0.80810000  0.15940000  0.89800000  1
  C  C148  1  0.82620000  0.77870000  0.36170000  1
  C  C149  1  0.83020000  0.72070000  0.90130000  1
  C  C150  1  0.83850000  0.25730000  0.82370000  1
  C  C151  1  0.84420000  0.69420000  0.34260000  1
  C  C152  1  0.85350000  0.35230000  0.15430000  1
  C  C153  1  0.87390000  0.60720000  0.84650000  1
  C  C154  1  0.90070000  0.15380000  0.89680000  1
  C  C155  1  0.91410000  0.84740000  0.38030000  1
  C  C156  1  0.92620000  0.76930000  0.90750000  1
  C  C157  1  0.93110000  0.25410000  0.82240000  1
  C  C158  1  0.94250000  0.09560000  0.93500000  1
  C  C159  1  0.94810000  0.37500000  0.17390000  1
  C  C160  1  0.95190000  0.85630000  0.94210000  1
  C  C161  1  0.96710000  0.43130000  0.21660000  1
  C  C162  1  0.97000000  0.20310000  0.85910000  1
  C  C163  1  0.97160000  0.65460000  0.85100000  1
  C  C164  1  0.98720000  0.25020000  0.64450000  1
  C  C165  1  0.99130000  0.68860000  0.21810000  1
  C  C166  1  0.99580000  0.16660000  0.62410000  1
  C  C167  1  0.99980000  0.74240000  0.88260000  1
  N  N168  1  0.06970000  0.31740000  0.66040000  1
  N  N169  1  0.10060000  0.53500000  0.76100000  1
  N  N170  1  0.39940000  0.46500000  0.26100000  1
  N  N171  1  0.43030000  0.68260000  0.16040000  1
  N  N172  1  0.56970000  0.31740000  0.83960000  1
  N  N173  1  0.60060000  0.53500000  0.73900000  1
  N  N174  1  0.89940000  0.46500000  0.23900000  1
  N  N175  1  0.93030000  0.68260000  0.33960000  1
  O  O176  1  0.02800000  0.09680000  0.93308000  1
  O  O177  1  0.03290000  0.64730000  0.25159000  1
  O  O178  1  0.03880000  0.91130000  0.93824000  1
  O  O179  1  0.09670000  0.31540000  0.78259000  1
  O  O180  1  0.11310000  0.13370000  0.02773000  1
  O  O181  1  0.12400000  0.94930000  0.03289000  1
  O  O182  1  0.12580000  0.58680000  0.60650000  1
  O  O183  1  0.17990000  0.50930000  0.66695000  1
  O  O184  1  0.32010000  0.49070000  0.16695000  1
  O  O185  1  0.37420000  0.41320000  0.10650000  1
  O  O186  1  0.37600000  0.05070000  0.53289000  1
  O  O187  1  0.38690000  0.86630000  0.52773000  1
  O  O188  1  0.40330000  0.68460000  0.28259000  1
  O  O189  1  0.46120000  0.08870000  0.43824000  1
  O  O190  1  0.46710000  0.35270000  0.75159000  1
  O  O191  1  0.47200000  0.90320000  0.43308000  1
  O  O192  1  0.52800000  0.09680000  0.56692000  1
  O  O193  1  0.53290000  0.64730000  0.24841000  1
  O  O194  1  0.53880000  0.91130000  0.56176000  1
  O  O195  1  0.59670000  0.31540000  0.71741000  1
  O  O196  1  0.61310000  0.13370000  0.47227000  1
  O  O197  1  0.62400000  0.94930000  0.46711000  1
  O  O198  1  0.62580000  0.58680000  0.89350000  1
  O  O199  1  0.67990000  0.50930000  0.83305000  1
  O  O200  1  0.82010000  0.49070000  0.33305000  1
  O  O201  1  0.87420000  0.41320000  0.39350000  1
  O  O202  1  0.87600000  0.05070000  0.96711000  1
  O  O203  1  0.88690000  0.86630000  0.97227000  1
  O  O204  1  0.90330000  0.68460000  0.21741000  1
  O  O205  1  0.96120000  0.08870000  0.06176000  1
  O  O206  1  0.96710000  0.35270000  0.74841000  1
  O  O207  1  0.97200000  0.90320000  0.06692000  1
