# generated using pymatgen
data_Zr3H26(C21O8)2
_symmetry_space_group_name_H-M   'P 1'
_cell_length_a   18.93844092
_cell_length_b   18.93844092
_cell_length_c   26.78300000
_cell_angle_alpha   90.00000000
_cell_angle_beta   90.00000000
_cell_angle_gamma   90.00000000
_symmetry_Int_Tables_number   1
_chemical_formula_structural   Zr3H26(C21O8)2
_chemical_formula_sum   'Zr12 H104 C168 O64'
_cell_volume   9606.11249534
_cell_formula_units_Z   4
loop_
 _symmetry_equiv_pos_site_id
 _symmetry_equiv_pos_as_xyz
  1  'x, y, z'
loop_
 _atom_site_type_symbol
 _atom_site_label
 _atom_site_symmetry_multiplicity
 _atom_site_fract_x
 _atom_site_fract_y
 _atom_site_fract_z
 _atom_site_occupancy
  C  C0  1  0.38329000  0.61255000  0.61467000  1
  C  C1  1  0.11239000  0.88323000  0.88533000  1
  C  C2  1  0.61230000  0.38314000  0.38534000  1
  C  C3  1  0.88303000  0.11217000  0.11469000  1
  C  C4  1  0.34279000  0.65131000  0.65438000  1
  C  C5  1  0.15119000  0.84275000  0.84562000  1
  C  C6  1  0.65091000  0.34249000  0.34563000  1
  C  C7  1  0.84241000  0.15083000  0.15441000  1
  C  C8  1  0.26634000  0.72634000  0.73005000  1
  C  C9  1  0.22631000  0.76635000  0.76993000  1
  C  C10  1  0.72579000  0.26583000  0.26996000  1
  C  C11  1  0.76582000  0.22578000  0.23009000  1
  C  C12  1  0.17213000  0.81223000  0.24156000  1
  C  C13  1  0.13478000  0.84930000  0.20448000  1
  C  C14  1  0.81159000  0.17157000  0.75850000  1
  C  C15  1  0.31148000  0.67168000  0.25859000  1
  C  C16  1  0.84873000  0.13429000  0.79558000  1
  C  C17  1  0.34854000  0.63430000  0.29566000  1
  C  C18  1  0.67108000  0.31088000  0.74139000  1
  C  C19  1  0.63379000  0.34801000  0.70430000  1
  C  C20  1  0.18912000  0.78090000  0.85721000  1
  C  C21  1  0.78060000  0.18880000  0.14278000  1
  C  C22  1  0.28047000  0.68851000  0.64288000  1
  C  C23  1  0.22567000  0.74319000  0.82003000  1
  C  C24  1  0.68814000  0.28020000  0.35716000  1
  C  C25  1  0.74280000  0.22526000  0.17996000  1
  C  C26  1  0.24274000  0.72502000  0.68006000  1
  C  C27  1  0.72456000  0.24236000  0.31998000  1
  C  C28  1  0.00035000  0.77071000  0.99775000  1
  C  C29  1  0.27069000  0.50021000  0.50221000  1
  C  C30  1  0.38296000  0.38790000  0.61472000  1
  C  C31  1  0.88773000  0.88305000  0.88532000  1
  C  C32  1  0.38749000  0.38313000  0.38547000  1
  C  C33  1  0.88320000  0.88738000  0.11455000  1
  C  C34  1  0.77074000  0.99984000  0.00215000  1
  C  C35  1  0.49966000  0.27076000  0.49781000  1
  C  C36  1  0.06178000  0.65270000  0.00837000  1
  C  C37  1  0.84248000  0.87198000  0.20413000  1
  C  C38  1  0.36539000  0.34907000  0.70447000  1
  C  C39  1  0.15304000  0.56142000  0.51547000  1
  C  C40  1  0.65284000  0.06140000  0.99149000  1
  C  C41  1  0.56101000  0.15321000  0.48450000  1
  C  C42  1  0.84831000  0.86589000  0.79569000  1
  C  C43  1  0.37269000  0.34151000  0.29607000  1
  C  C44  1  0.00041000  0.69137000  0.99673000  1
  C  C45  1  0.34243000  0.34915000  0.65443000  1
  C  C46  1  0.84903000  0.84251000  0.84562000  1
  C  C47  1  0.19135500  0.50010500  0.50313000  1
  C  C48  1  0.69139000  0.99993000  0.00307000  1
  C  C49  1  0.34864000  0.34258000  0.34583000  1
  C  C50  1  0.84260000  0.84856000  0.15420000  1
  C  C51  1  0.49959000  0.19141000  0.49681000  1
  C  C52  1  0.80471000  0.83543000  0.24127000  1
  C  C53  1  0.32809000  0.31193000  0.74155000  1
  C  C54  1  0.07873000  0.56127000  0.51614000  1
  C  C55  1  0.06155000  0.57841000  0.00822000  1
  C  C56  1  0.56104000  0.07890000  0.48384000  1
  C  C57  1  0.57855000  0.06137000  0.99162000  1
  C  C58  1  0.33611000  0.30375000  0.25893000  1
  C  C59  1  0.81120000  0.82856000  0.75861000  1
  C  C60  1  0.93898000  0.65320000  0.98446000  1
  C  C61  1  0.81186000  0.78016000  0.85712000  1
  C  C62  1  0.28056000  0.31126000  0.64283000  1
  C  C63  1  0.65308000  0.93856000  0.01526000  1
  C  C64  1  0.15282000  0.43868000  0.49141000  1
  C  C65  1  0.28661000  0.30477000  0.35715000  1
  C  C66  1  0.43825000  0.15273000  0.50850000  1
  C  C67  1  0.80375000  0.78723000  0.14273000  1
  C  C68  1  0.00013000  0.53995000  0.99588000  1
  C  C69  1  0.26598000  0.27406000  0.73010000  1
  C  C70  1  0.77401000  0.76599000  0.76996000  1
  C  C71  1  0.53995000  0.00003000  0.00390000  1
  C  C72  1  0.03994000  0.49998000  0.50398000  1
  C  C73  1  0.27362000  0.26626000  0.27004000  1
  C  C74  1  0.76623000  0.77361000  0.23000000  1
  C  C75  1  0.49985000  0.03995000  0.49598000  1
  C  C76  1  0.93893000  0.57891000  0.98378000  1
  C  C77  1  0.77535000  0.74241000  0.81995000  1
  C  C78  1  0.24284000  0.27472000  0.68000000  1
  C  C79  1  0.57876000  0.93870000  0.01594000  1
  C  C80  1  0.24959000  0.26765000  0.31992000  1
  C  C81  1  0.07854000  0.43870000  0.49156000  1
  C  C82  1  0.43846000  0.07842000  0.50836000  1
  C  C83  1  0.76660000  0.75024000  0.17996000  1
  C  C84  1  0.23337000  0.24977000  0.17996000  1
  C  C85  1  0.56152000  0.92158000  0.50836000  1
  C  C86  1  0.92144000  0.56130000  0.49156000  1
  C  C87  1  0.75038000  0.73236000  0.31992000  1
  C  C88  1  0.42121000  0.06131000  0.01594000  1
  C  C89  1  0.75714000  0.72528000  0.68000000  1
  C  C90  1  0.22462000  0.25760000  0.81995000  1
  C  C91  1  0.06104000  0.42110000  0.98378000  1
  C  C92  1  0.50013000  0.96005000  0.49598000  1
  C  C93  1  0.23375000  0.22639000  0.23000000  1
  C  C94  1  0.72635000  0.73375000  0.27004000  1
  C  C95  1  0.96004000  0.50002000  0.50398000  1
  C  C96  1  0.46003000  0.99997000  0.00390000  1
  C  C97  1  0.22597000  0.23401000  0.76996000  1
  C  C98  1  0.73399000  0.72595000  0.73010000  1
  C  C99  1  0.99984000  0.46006000  0.99588000  1
  C  C100  1  0.56173000  0.84727000  0.50850000  1
  C  C101  1  0.19622000  0.21278000  0.14273000  1
  C  C102  1  0.71336000  0.69524000  0.35715000  1
  C  C103  1  0.84715000  0.56133000  0.49141000  1
  C  C104  1  0.34690000  0.06144000  0.01526000  1
  C  C105  1  0.71941000  0.68875000  0.64283000  1
  C  C106  1  0.18811000  0.21985000  0.85712000  1
  C  C107  1  0.06100000  0.34680000  0.98446000  1
  C  C108  1  0.18878000  0.17144000  0.75861000  1
  C  C109  1  0.66386000  0.69626000  0.25893000  1
  C  C110  1  0.42142000  0.93864000  0.99162000  1
  C  C111  1  0.43893000  0.92111000  0.48384000  1
  C  C112  1  0.93842000  0.42160000  0.00822000  1
  C  C113  1  0.92124000  0.43874000  0.51614000  1
  C  C114  1  0.67188000  0.68808000  0.74155000  1
  C  C115  1  0.19526000  0.16458000  0.24127000  1
  C  C116  1  0.50038000  0.80860000  0.49681000  1
  C  C117  1  0.15737000  0.15145000  0.15420000  1
  C  C118  1  0.65133000  0.65743000  0.34583000  1
  C  C119  1  0.30858000  0.00008000  0.00307000  1
  C  C120  1  0.80862000  0.49990000  0.50313000  1
  C  C121  1  0.15094000  0.15750000  0.84562000  1
  C  C122  1  0.65754000  0.65086000  0.65443000  1
  C  C123  1  0.99957000  0.30863000  0.99673000  1
  C  C124  1  0.15167000  0.13413000  0.79569000  1
  C  C125  1  0.62728000  0.65850000  0.29607000  1
  C  C126  1  0.43897000  0.84679000  0.48450000  1
  C  C127  1  0.34714000  0.93860000  0.99149000  1
  C  C128  1  0.63458000  0.65094000  0.70447000  1
  C  C129  1  0.15749000  0.12803000  0.20413000  1
  C  C130  1  0.84693000  0.43859000  0.51547000  1
  C  C131  1  0.93820000  0.34730000  0.00837000  1
  C  C132  1  0.50031000  0.72925000  0.49781000  1
  C  C133  1  0.22923000  0.00017000  0.00215000  1
  C  C134  1  0.11677000  0.11263000  0.11455000  1
  C  C135  1  0.61248000  0.61688000  0.38547000  1
  C  C136  1  0.11225000  0.11695000  0.88532000  1
  C  C137  1  0.61701000  0.61211000  0.61472000  1
  C  C138  1  0.72928000  0.49980000  0.50221000  1
  C  C139  1  0.99962000  0.22930000  0.99775000  1
  C  C140  1  0.27541000  0.75765000  0.31998000  1
  C  C141  1  0.75724000  0.27498000  0.68006000  1
  C  C142  1  0.25718000  0.77476000  0.17996000  1
  C  C143  1  0.31183000  0.71981000  0.35716000  1
  C  C144  1  0.77431000  0.25681000  0.82003000  1
  C  C145  1  0.71950000  0.31150000  0.64288000  1
  C  C146  1  0.21937000  0.81121000  0.14278000  1
  C  C147  1  0.81085000  0.21911000  0.85721000  1
  C  C148  1  0.36619000  0.65201000  0.70430000  1
  C  C149  1  0.32889000  0.68913000  0.74139000  1
  C  C150  1  0.65144000  0.36570000  0.29566000  1
  C  C151  1  0.15125000  0.86571000  0.79558000  1
  C  C152  1  0.18839000  0.82845000  0.75850000  1
  C  C153  1  0.68849000  0.32833000  0.25859000  1
  C  C154  1  0.86520000  0.15070000  0.20448000  1
  C  C155  1  0.82784000  0.18778000  0.24156000  1
  C  C156  1  0.23415000  0.77423000  0.23009000  1
  C  C157  1  0.27419000  0.73417000  0.26996000  1
  C  C158  1  0.77368000  0.23366000  0.76993000  1
  C  C159  1  0.73364000  0.27366000  0.73005000  1
  C  C160  1  0.15756000  0.84918000  0.15441000  1
  C  C161  1  0.34906000  0.65752000  0.34563000  1
  C  C162  1  0.84878000  0.15726000  0.84562000  1
  C  C163  1  0.65718000  0.34870000  0.65438000  1
  C  C164  1  0.11695000  0.88783000  0.11469000  1
  C  C165  1  0.38767000  0.61687000  0.38534000  1
  C  C166  1  0.88758000  0.11678000  0.88533000  1
  C  C167  1  0.61668000  0.38746000  0.61467000  1
  H  H168  1  0.08724000  0.87734000  0.21505000  1
  H  H169  1  0.15136500  0.81248500  0.27919000  1
  H  H170  1  0.87667000  0.08667000  0.78506000  1
  H  H171  1  0.81173000  0.15071000  0.72089000  1
  H  H172  1  0.37600000  0.58638000  0.28519000  1
  H  H173  1  0.31119000  0.65057000  0.22105000  1
  H  H174  1  0.58581000  0.37539000  0.71474000  1
  H  H175  1  0.64990000  0.31048000  0.77890000  1
  H  H176  1  0.19005000  0.76103000  0.89512000  1
  H  H177  1  0.76083000  0.18985000  0.10485000  1
  H  H178  1  0.26024000  0.68886000  0.60506000  1
  H  H179  1  0.68860000  0.26006000  0.39501000  1
  H  H180  1  0.25269000  0.69517000  0.83067000  1
  H  H181  1  0.69480000  0.25232000  0.16928000  1
  H  H182  1  0.19435000  0.75147000  0.66952000  1
  H  H183  1  0.75104000  0.19400000  0.33056000  1
  H  H184  1  0.36717000  0.50021000  0.43362000  1
  H  H185  1  0.00018000  0.86718000  0.06640000  1
  H  H186  1  0.86718000  0.99982000  0.93361000  1
  H  H187  1  0.49981000  0.36719000  0.56640000  1
  H  H188  1  0.87115000  0.91921000  0.21455000  1
  H  H189  1  0.18053000  0.60965000  0.52517000  1
  H  H190  1  0.41303000  0.37697000  0.71500000  1
  H  H191  1  0.60919000  0.18079000  0.47482000  1
  H  H192  1  0.11005000  0.67987000  0.01839000  1
  H  H193  1  0.42046000  0.36938000  0.28578000  1
  H  H194  1  0.68011000  0.10965000  0.98152000  1
  H  H195  1  0.87566000  0.91388000  0.78525000  1
  H  H196  1  0.80506000  0.85648000  0.27882000  1
  H  H197  1  0.60914000  0.05210000  0.47308000  1
  H  H198  1  0.05180000  0.60930000  0.52691000  1
  H  H199  1  0.34894000  0.31206000  0.77915000  1
  H  H200  1  0.35766000  0.30330000  0.22153000  1
  H  H201  1  0.55149000  0.10945000  0.98115000  1
  H  H202  1  0.10954000  0.55122000  0.01872000  1
  H  H203  1  0.81078000  0.84974000  0.72110000  1
  H  H204  1  0.89077000  0.68079000  0.97482000  1
  H  H205  1  0.81153000  0.75995000  0.89495000  1
  H  H206  1  0.26069000  0.31035000  0.60492000  1
  H  H207  1  0.68056000  0.89028000  0.02483000  1
  H  H208  1  0.18011000  0.39049000  0.48131000  1
  H  H209  1  0.26585000  0.30465000  0.39483000  1
  H  H210  1  0.38999000  0.17991000  0.51856000  1
  H  H211  1  0.80280000  0.76700000  0.10492000  1
  H  H212  1  0.26085000  0.29759000  0.16942000  1
  H  H213  1  0.60950000  0.94876000  0.51889000  1
  H  H214  1  0.94851000  0.60935000  0.48101000  1
  H  H215  1  0.79873000  0.75901000  0.33031000  1
  H  H216  1  0.44812000  0.10938000  0.02662000  1
  H  H217  1  0.80518000  0.75228000  0.66936000  1
  H  H218  1  0.25106000  0.30600000  0.83050000  1
  H  H219  1  0.10917000  0.44789000  0.97305000  1
  H  H220  1  0.74893000  0.69401000  0.83050000  1
  H  H221  1  0.89081000  0.55211000  0.97305000  1
  H  H222  1  0.19480000  0.24772000  0.66936000  1
  H  H223  1  0.55186000  0.89062000  0.02662000  1
  H  H224  1  0.20125000  0.24099000  0.33031000  1
  H  H225  1  0.05146000  0.39066000  0.48101000  1
  H  H226  1  0.39047000  0.05125000  0.51889000  1
  H  H227  1  0.73912000  0.70242000  0.16942000  1
  H  H228  1  0.19718000  0.23300000  0.10492000  1
  H  H229  1  0.60998000  0.82010000  0.51856000  1
  H  H230  1  0.73412000  0.69536000  0.39483000  1
  H  H231  1  0.81987000  0.60951000  0.48131000  1
  H  H232  1  0.31941000  0.10973000  0.02483000  1
  H  H233  1  0.73928000  0.68966000  0.60492000  1
  H  H234  1  0.18844000  0.24006000  0.89495000  1
  H  H235  1  0.10920000  0.31922000  0.97482000  1
  H  H236  1  0.18919000  0.15027000  0.72110000  1
  H  H237  1  0.89043000  0.44879000  0.01872000  1
  H  H238  1  0.44848000  0.89056000  0.98115000  1
  H  H239  1  0.64231000  0.69671000  0.22153000  1
  H  H240  1  0.65103000  0.68795000  0.77915000  1
  H  H241  1  0.94817000  0.39071000  0.52691000  1
  H  H242  1  0.39083000  0.94791000  0.47308000  1
  H  H243  1  0.19491000  0.14353000  0.27882000  1
  H  H244  1  0.12431000  0.08613000  0.78525000  1
  H  H245  1  0.31986000  0.89036000  0.98152000  1
  H  H246  1  0.57951000  0.63063000  0.28578000  1
  H  H247  1  0.88993000  0.32013000  0.01839000  1
  H  H248  1  0.39078000  0.81922000  0.47482000  1
  H  H249  1  0.58695000  0.62303000  0.71500000  1
  H  H250  1  0.81944000  0.39036000  0.52517000  1
  H  H251  1  0.12882000  0.08080000  0.21455000  1
  H  H252  1  0.50016000  0.63282000  0.56640000  1
  H  H253  1  0.13279000  0.00019000  0.93361000  1
  H  H254  1  0.99980000  0.13282000  0.06640000  1
  H  H255  1  0.63280000  0.49980000  0.43362000  1
  H  H256  1  0.24893000  0.80601000  0.33056000  1
  H  H257  1  0.80563000  0.24853000  0.66952000  1
  H  H258  1  0.30517000  0.74769000  0.16928000  1
  H  H259  1  0.74728000  0.30484000  0.83067000  1
  H  H260  1  0.31138000  0.73994000  0.39501000  1
  H  H261  1  0.73973000  0.31115000  0.60506000  1
  H  H262  1  0.23914000  0.81016000  0.10485000  1
  H  H263  1  0.80992000  0.23898000  0.89512000  1
  H  H264  1  0.35008000  0.68952000  0.77890000  1
  H  H265  1  0.41416000  0.62462000  0.71474000  1
  H  H266  1  0.68878000  0.34944000  0.22105000  1
  H  H267  1  0.62398000  0.41362000  0.28519000  1
  H  H268  1  0.18824000  0.84930000  0.72089000  1
  H  H269  1  0.12331000  0.91333000  0.78506000  1
  H  H270  1  0.84862000  0.18752000  0.27919000  1
  H  H271  1  0.91273000  0.12267000  0.21505000  1
  O  O272  1  0.56703000  0.43075000  0.37089000  1
  O  O273  1  0.93074000  0.06702000  0.12914000  1
  O  O274  1  0.43065000  0.56701000  0.62912000  1
  O  O275  1  0.06696000  0.93068000  0.87088000  1
  O  O276  1  0.36924000  0.62748000  0.56822000  1
  O  O277  1  0.12718000  0.86906000  0.93178000  1
  O  O278  1  0.62707000  0.36893000  0.43180000  1
  O  O279  1  0.86873000  0.12681000  0.06823000  1
  O  O280  1  0.40978000  0.50014000  0.45493000  1
  O  O281  1  0.00011000  0.90979000  0.04509000  1
  O  O282  1  0.49988000  0.40982000  0.54511000  1
  O  O283  1  0.90981000  0.99987000  0.95491000  1
  O  O284  1  0.40923000  0.50015000  0.54542000  1
  O  O285  1  0.00013000  0.90925000  0.95460000  1
  O  O286  1  0.90928000  0.99986000  0.04533000  1
  O  O287  1  0.49984000  0.40930000  0.45469000  1
  O  O288  1  0.06122000  0.80276000  0.99895000  1
  O  O289  1  0.30272000  0.56112000  0.50182000  1
  O  O290  1  0.43052000  0.43320000  0.62917000  1
  O  O291  1  0.93315000  0.93053000  0.87087000  1
  O  O292  1  0.43376000  0.42978000  0.37099000  1
  O  O293  1  0.92977000  0.93373000  0.12901000  1
  O  O294  1  0.80266000  0.06076000  0.00101000  1
  O  O295  1  0.56062000  0.30266000  0.49819000  1
  O  O296  1  0.93941000  0.80263000  0.99799000  1
  O  O297  1  0.30262000  0.43930000  0.50120000  1
  O  O298  1  0.36872000  0.37318000  0.56827000  1
  O  O299  1  0.87288000  0.86894000  0.93177000  1
  O  O300  1  0.37190000  0.36982000  0.43191000  1
  O  O301  1  0.80278000  0.93892000  0.00190000  1
  O  O302  1  0.87000000  0.87166000  0.06811000  1
  O  O303  1  0.43879000  0.30281000  0.49888000  1
  O  O304  1  0.56119000  0.69719000  0.49888000  1
  O  O305  1  0.12997000  0.12835000  0.06811000  1
  O  O306  1  0.19719000  0.06109000  0.00190000  1
  O  O307  1  0.62808000  0.63018000  0.43191000  1
  O  O308  1  0.12709000  0.13107000  0.93177000  1
  O  O309  1  0.63125000  0.62683000  0.56827000  1
  O  O310  1  0.69735000  0.56071000  0.50120000  1
  O  O311  1  0.06057000  0.19737000  0.99799000  1
  O  O312  1  0.43935000  0.69735000  0.49819000  1
  O  O313  1  0.19731000  0.93925000  0.00101000  1
  O  O314  1  0.07021000  0.06627000  0.12901000  1
  O  O315  1  0.56622000  0.57022000  0.37099000  1
  O  O316  1  0.06682000  0.06948000  0.87087000  1
  O  O317  1  0.56945000  0.56681000  0.62917000  1
  O  O318  1  0.69726000  0.43888000  0.50182000  1
  O  O319  1  0.93875000  0.19725000  0.99895000  1
  O  O320  1  0.50013000  0.59071000  0.45469000  1
  O  O321  1  0.09070000  0.00014000  0.04533000  1
  O  O322  1  0.99984000  0.09076000  0.95460000  1
  O  O323  1  0.59075000  0.49985000  0.54542000  1
  O  O324  1  0.09017000  0.00013000  0.95491000  1
  O  O325  1  0.50009000  0.59019000  0.54511000  1
  O  O326  1  0.99987000  0.09021000  0.04509000  1
  O  O327  1  0.59019000  0.49987000  0.45493000  1
  O  O328  1  0.13125000  0.87319000  0.06823000  1
  O  O329  1  0.37290000  0.63108000  0.43180000  1
  O  O330  1  0.87280000  0.13094000  0.93178000  1
  O  O331  1  0.63073000  0.37253000  0.56822000  1
  O  O332  1  0.93301000  0.06933000  0.87088000  1
  O  O333  1  0.56933000  0.43299000  0.62912000  1
  O  O334  1  0.06923000  0.93299000  0.12914000  1
  O  O335  1  0.43294000  0.56926000  0.37089000  1
  Zr  Zr336  1  0.99999000  0.00001000  0.91161000  1
  Zr  Zr337  1  0.99999000  0.00001000  0.08836000  1
  Zr  Zr338  1  0.49999000  0.50001000  0.58840000  1
  Zr  Zr339  1  0.49999000  0.50001000  0.41165000  1
  Zr  Zr340  1  0.91150000  0.08828000  0.99999000  1
  Zr  Zr341  1  0.58828000  0.41150000  0.50002000  1
  Zr  Zr342  1  0.41145000  0.41179000  0.50006000  1
  Zr  Zr343  1  0.91175000  0.91145000  0.99997000  1
  Zr  Zr344  1  0.08823000  0.08855000  0.99997000  1
  Zr  Zr345  1  0.58852000  0.58822000  0.50006000  1
  Zr  Zr346  1  0.41169000  0.58851000  0.50002000  1
  Zr  Zr347  1  0.08847000  0.91173000  0.99999000  1
