# generated using pymatgen
data_Zn2H12C15N15O4
_symmetry_space_group_name_H-M   'P 1'
_cell_length_a   10.32900000
_cell_length_b   16.00300000
_cell_length_c   31.92800000
_cell_angle_alpha   90.00000000
_cell_angle_beta   90.00000000
_cell_angle_gamma   90.00000000
_symmetry_Int_Tables_number   1
_chemical_formula_structural   Zn2H12C15N15O4
_chemical_formula_sum   'Zn8 H48 C60 N60 O16'
_cell_volume   5277.53834494
_cell_formula_units_Z   4
loop_
 _symmetry_equiv_pos_site_id
 _symmetry_equiv_pos_as_xyz
  1  'x, y, z'
loop_
 _atom_site_type_symbol
 _atom_site_label
 _atom_site_symmetry_multiplicity
 _atom_site_fract_x
 _atom_site_fract_y
 _atom_site_fract_z
 _atom_site_occupancy
  Zn  Zn0  1  0.10141000  0.44208000  0.79347000  1
  Zn  Zn1  1  0.10141000  0.05792000  0.79347000  1
  Zn  Zn2  1  0.60141000  0.94208000  0.70653000  1
  Zn  Zn3  1  0.60141000  0.55792000  0.70653000  1
  Zn  Zn4  1  0.39859000  0.44208000  0.29347000  1
  Zn  Zn5  1  0.39859000  0.05792000  0.29347000  1
  Zn  Zn6  1  0.89859000  0.94208000  0.20653000  1
  Zn  Zn7  1  0.89859000  0.55792000  0.20653000  1
  H  H8  1  0.24470000  0.96120000  0.99030000  1
  H  H9  1  0.24470000  0.53880000  0.99030000  1
  H  H10  1  0.85110000  0.44790000  0.93810000  1
  H  H11  1  0.85110000  0.05210000  0.93810000  1
  H  H12  1  0.22020000  0.98770000  0.91970000  1
  H  H13  1  0.22020000  0.51230000  0.91970000  1
  H  H14  1  0.97360000  0.29870000  0.85410000  1
  H  H15  1  0.97360000  0.20130000  0.85410000  1
  H  H16  1  0.80590000  0.41090000  0.80970000  1
  H  H17  1  0.80590000  0.08910000  0.80970000  1
  H  H18  1  0.67790000  0.42940000  0.78560000  1
  H  H19  1  0.67790000  0.07060000  0.78560000  1
  H  H20  1  0.17790000  0.92940000  0.71440000  1
  H  H21  1  0.17790000  0.57060000  0.71440000  1
  H  H22  1  0.30590000  0.91090000  0.69030000  1
  H  H23  1  0.30590000  0.58910000  0.69030000  1
  H  H24  1  0.47360000  0.79870000  0.64590000  1
  H  H25  1  0.47360000  0.70130000  0.64590000  1
  H  H26  1  0.72020000  0.48770000  0.58030000  1
  H  H27  1  0.72020000  0.01230000  0.58030000  1
  H  H28  1  0.35110000  0.94790000  0.56190000  1
  H  H29  1  0.35110000  0.55210000  0.56190000  1
  H  H30  1  0.74470000  0.46120000  0.50970000  1
  H  H31  1  0.74470000  0.03880000  0.50970000  1
  H  H32  1  0.25530000  0.96120000  0.49030000  1
  H  H33  1  0.25530000  0.53880000  0.49030000  1
  H  H34  1  0.64890000  0.44790000  0.43810000  1
  H  H35  1  0.64890000  0.05210000  0.43810000  1
  H  H36  1  0.27980000  0.98770000  0.41970000  1
  H  H37  1  0.27980000  0.51230000  0.41970000  1
  H  H38  1  0.52640000  0.29870000  0.35410000  1
  H  H39  1  0.52640000  0.20130000  0.35410000  1
  H  H40  1  0.69410000  0.41090000  0.30970000  1
  H  H41  1  0.69410000  0.08910000  0.30970000  1
  H  H42  1  0.82210000  0.42940000  0.28560000  1
  H  H43  1  0.82210000  0.07060000  0.28560000  1
  H  H44  1  0.32210000  0.92940000  0.21440000  1
  H  H45  1  0.32210000  0.57060000  0.21440000  1
  H  H46  1  0.19410000  0.91090000  0.19030000  1
  H  H47  1  0.19410000  0.58910000  0.19030000  1
  H  H48  1  0.02640000  0.79870000  0.14590000  1
  H  H49  1  0.02640000  0.70130000  0.14590000  1
  H  H50  1  0.77980000  0.48770000  0.08030000  1
  H  H51  1  0.77980000  0.01230000  0.08030000  1
  H  H52  1  0.14890000  0.94790000  0.06190000  1
  H  H53  1  0.14890000  0.55210000  0.06190000  1
  H  H54  1  0.75530000  0.46120000  0.00970000  1
  H  H55  1  0.75530000  0.03880000  0.00970000  1
  C  C56  1  0.94040000  0.48510000  0.99234000  1
  C  C57  1  0.94040000  0.01490000  0.99234000  1
  C  C58  1  0.16430000  0.97760000  0.98012000  1
  C  C59  1  0.16430000  0.52240000  0.98012000  1
  C  C60  1  0.92950000  0.46700000  0.94874000  1
  C  C61  1  0.92950000  0.03300000  0.94874000  1
  C  C62  1  0.15040000  0.99480000  0.93779000  1
  C  C63  1  0.15040000  0.50520000  0.93779000  1
  C  C64  1  0.03240000  0.47790000  0.92213000  1
  C  C65  1  0.03240000  0.02210000  0.92213000  1
  C  C66  1  0.01850000  0.45570000  0.87637000  1
  C  C67  1  0.01850000  0.04430000  0.87637000  1
  C  C68  1  0.05640000  0.25000000  0.80371000  1
  C  C69  1  0.83010000  0.48560000  0.76099000  1
  C  C70  1  0.83010000  0.01440000  0.76099000  1
  C  C71  1  0.33010000  0.98560000  0.73901000  1
  C  C72  1  0.33010000  0.51440000  0.73901000  1
  C  C73  1  0.55640000  0.75000000  0.69629000  1
  C  C74  1  0.51850000  0.95570000  0.62363000  1
  C  C75  1  0.51850000  0.54430000  0.62363000  1
  C  C76  1  0.53240000  0.97790000  0.57787000  1
  C  C77  1  0.53240000  0.52210000  0.57787000  1
  C  C78  1  0.65040000  0.49480000  0.56221000  1
  C  C79  1  0.65040000  0.00520000  0.56221000  1
  C  C80  1  0.42950000  0.96700000  0.55126000  1
  C  C81  1  0.42950000  0.53300000  0.55126000  1
  C  C82  1  0.66430000  0.47760000  0.51988000  1
  C  C83  1  0.66430000  0.02240000  0.51988000  1
  C  C84  1  0.44040000  0.98510000  0.50766000  1
  C  C85  1  0.44040000  0.51490000  0.50766000  1
  C  C86  1  0.55960000  0.48510000  0.49234000  1
  C  C87  1  0.55960000  0.01490000  0.49234000  1
  C  C88  1  0.33570000  0.97760000  0.48012000  1
  C  C89  1  0.33570000  0.52240000  0.48012000  1
  C  C90  1  0.57050000  0.46700000  0.44874000  1
  C  C91  1  0.57050000  0.03300000  0.44874000  1
  C  C92  1  0.34960000  0.99480000  0.43779000  1
  C  C93  1  0.34960000  0.50520000  0.43779000  1
  C  C94  1  0.46760000  0.47790000  0.42213000  1
  C  C95  1  0.46760000  0.02210000  0.42213000  1
  C  C96  1  0.48150000  0.45570000  0.37637000  1
  C  C97  1  0.48150000  0.04430000  0.37637000  1
  C  C98  1  0.44360000  0.25000000  0.30371000  1
  C  C99  1  0.66990000  0.48560000  0.26099000  1
  C  C100  1  0.66990000  0.01440000  0.26099000  1
  C  C101  1  0.16990000  0.98560000  0.23901000  1
  C  C102  1  0.16990000  0.51440000  0.23901000  1
  C  C103  1  0.94360000  0.75000000  0.19629000  1
  C  C104  1  0.98150000  0.95570000  0.12363000  1
  C  C105  1  0.98150000  0.54430000  0.12363000  1
  C  C106  1  0.96760000  0.97790000  0.07787000  1
  C  C107  1  0.96760000  0.52210000  0.07787000  1
  C  C108  1  0.84960000  0.49480000  0.06221000  1
  C  C109  1  0.84960000  0.00520000  0.06221000  1
  C  C110  1  0.07050000  0.96700000  0.05126000  1
  C  C111  1  0.07050000  0.53300000  0.05126000  1
  C  C112  1  0.83570000  0.47760000  0.01988000  1
  C  C113  1  0.83570000  0.02240000  0.01988000  1
  C  C114  1  0.05960000  0.98510000  0.00766000  1
  C  C115  1  0.05960000  0.51490000  0.00766000  1
  N  N116  1  0.99370000  0.25000000  0.84162000  1
  N  N117  1  0.37840000  0.43640000  0.79244000  1
  N  N118  1  0.37840000  0.06360000  0.79244000  1
  N  N119  1  0.76390000  0.43620000  0.78857000  1
  N  N120  1  0.76390000  0.06380000  0.78857000  1
  N  N121  1  0.09200000  0.31970000  0.78311000  1
  N  N122  1  0.09200000  0.18030000  0.78311000  1
  N  N123  1  0.48560000  0.45480000  0.77322000  1
  N  N124  1  0.48560000  0.04520000  0.77322000  1
  N  N125  1  0.27670000  0.47340000  0.77170000  1
  N  N126  1  0.27670000  0.02660000  0.77170000  1
  N  N127  1  0.95960000  0.49620000  0.76039000  1
  N  N128  1  0.95960000  0.00380000  0.76039000  1
  N  N129  1  0.65390000  0.79100000  0.75290000  1
  N  N130  1  0.65390000  0.70900000  0.75290000  1
  N  N131  1  0.15390000  0.29100000  0.74710000  1
  N  N132  1  0.15390000  0.20900000  0.74710000  1
  N  N133  1  0.45960000  0.99620000  0.73961000  1
  N  N134  1  0.45960000  0.50380000  0.73961000  1
  N  N135  1  0.77670000  0.97340000  0.72830000  1
  N  N136  1  0.77670000  0.52660000  0.72830000  1
  N  N137  1  0.98560000  0.95480000  0.72678000  1
  N  N138  1  0.98560000  0.54520000  0.72678000  1
  N  N139  1  0.59200000  0.81970000  0.71689000  1
  N  N140  1  0.59200000  0.68030000  0.71689000  1
  N  N141  1  0.26390000  0.93620000  0.71143000  1
  N  N142  1  0.26390000  0.56380000  0.71143000  1
  N  N143  1  0.87840000  0.93640000  0.70756000  1
  N  N144  1  0.87840000  0.56360000  0.70756000  1
  N  N145  1  0.49370000  0.75000000  0.65838000  1
  N  N146  1  0.50630000  0.25000000  0.34162000  1
  N  N147  1  0.12160000  0.43640000  0.29244000  1
  N  N148  1  0.12160000  0.06360000  0.29244000  1
  N  N149  1  0.73610000  0.43620000  0.28857000  1
  N  N150  1  0.73610000  0.06380000  0.28857000  1
  N  N151  1  0.40800000  0.31970000  0.28311000  1
  N  N152  1  0.40800000  0.18030000  0.28311000  1
  N  N153  1  0.01440000  0.45480000  0.27322000  1
  N  N154  1  0.01440000  0.04520000  0.27322000  1
  N  N155  1  0.22330000  0.47340000  0.27170000  1
  N  N156  1  0.22330000  0.02660000  0.27170000  1
  N  N157  1  0.54040000  0.49620000  0.26039000  1
  N  N158  1  0.54040000  0.00380000  0.26039000  1
  N  N159  1  0.84610000  0.79100000  0.25290000  1
  N  N160  1  0.84610000  0.70900000  0.25290000  1
  N  N161  1  0.34610000  0.29100000  0.24710000  1
  N  N162  1  0.34610000  0.20900000  0.24710000  1
  N  N163  1  0.04040000  0.99620000  0.23961000  1
  N  N164  1  0.04040000  0.50380000  0.23961000  1
  N  N165  1  0.72330000  0.97340000  0.22830000  1
  N  N166  1  0.72330000  0.52660000  0.22830000  1
  N  N167  1  0.51440000  0.95480000  0.22678000  1
  N  N168  1  0.51440000  0.54520000  0.22678000  1
  N  N169  1  0.90800000  0.81970000  0.21689000  1
  N  N170  1  0.90800000  0.68030000  0.21689000  1
  N  N171  1  0.23610000  0.93620000  0.21143000  1
  N  N172  1  0.23610000  0.56380000  0.21143000  1
  N  N173  1  0.62160000  0.93640000  0.20756000  1
  N  N174  1  0.62160000  0.56360000  0.20756000  1
  N  N175  1  0.00630000  0.75000000  0.15838000  1
  O  O176  1  0.91650000  0.41910000  0.86358000  1
  O  O177  1  0.91650000  0.08090000  0.86358000  1
  O  O178  1  0.11430000  0.47340000  0.85261000  1
  O  O179  1  0.11430000  0.02660000  0.85261000  1
  O  O180  1  0.61430000  0.97340000  0.64739000  1
  O  O181  1  0.61430000  0.52660000  0.64739000  1
  O  O182  1  0.41650000  0.91910000  0.63642000  1
  O  O183  1  0.41650000  0.58090000  0.63642000  1
  O  O184  1  0.58350000  0.41910000  0.36358000  1
  O  O185  1  0.58350000  0.08090000  0.36358000  1
  O  O186  1  0.38570000  0.47340000  0.35261000  1
  O  O187  1  0.38570000  0.02660000  0.35261000  1
  O  O188  1  0.88570000  0.97340000  0.14739000  1
  O  O189  1  0.88570000  0.52660000  0.14739000  1
  O  O190  1  0.08350000  0.91910000  0.13642000  1
  O  O191  1  0.08350000  0.58090000  0.13642000  1
