# generated using pymatgen
data_Mn3H28C48N6(O3F2)4
_symmetry_space_group_name_H-M   'P 1'
_cell_length_a   10.83360000
_cell_length_b   15.08633427
_cell_length_c   18.28670000
_cell_angle_alpha   90.00000000
_cell_angle_beta   90.00000000
_cell_angle_gamma   110.81831453
_symmetry_Int_Tables_number   1
_chemical_formula_structural   Mn3H28C48N6(O3F2)4
_chemical_formula_sum   'Mn6 H56 C96 N12 O24 F16'
_cell_volume   2793.63547253
_cell_formula_units_Z   2
loop_
 _symmetry_equiv_pos_site_id
 _symmetry_equiv_pos_as_xyz
  1  'x, y, z'
loop_
 _atom_site_type_symbol
 _atom_site_label
 _atom_site_symmetry_multiplicity
 _atom_site_fract_x
 _atom_site_fract_y
 _atom_site_fract_z
 _atom_site_occupancy
  Mn  Mn0  1  0.00399000  0.83229000  0.01142000  1
  Mn  Mn1  1  0.50399000  0.33229000  0.48858000  1
  Mn  Mn2  1  0.00000000  0.50000000  0.00000000  1
  Mn  Mn3  1  0.50000000  0.00000000  0.50000000  1
  Mn  Mn4  1  0.49601000  0.66771000  0.51142000  1
  Mn  Mn5  1  0.99601000  0.16771000  0.98858000  1
  H  H6  1  0.25570000  0.21100000  0.61260000  1
  H  H7  1  0.75570000  0.71100000  0.88740000  1
  H  H8  1  0.65070000  0.55070000  0.58820000  1
  H  H9  1  0.15070000  0.05070000  0.91180000  1
  H  H10  1  0.20670000  0.09450000  0.17360000  1
  H  H11  1  0.70670000  0.59450000  0.32640000  1
  H  H12  1  0.47570000  0.34310000  0.66490000  1
  H  H13  1  0.97570000  0.84310000  0.83510000  1
  H  H14  1  0.71040000  0.56100000  0.20810000  1
  H  H15  1  0.21040000  0.06100000  0.29190000  1
  H  H16  1  0.95300000  0.75050000  0.17470000  1
  H  H17  1  0.45300000  0.25050000  0.32530000  1
  H  H18  1  0.25840000  0.04480000  0.67160000  1
  H  H19  1  0.75840000  0.54480000  0.82840000  1
  H  H20  1  0.79880000  0.56410000  0.09440000  1
  H  H21  1  0.29880000  0.06410000  0.40560000  1
  H  H22  1  0.06780000  0.82430000  0.72670000  1
  H  H23  1  0.56780000  0.32430000  0.77330000  1
  H  H24  1  0.25810000  0.93580000  0.13580000  1
  H  H25  1  0.75810000  0.43580000  0.36420000  1
  H  H26  1  0.25170000  0.87240000  0.63400000  1
  H  H27  1  0.75170000  0.37240000  0.86600000  1
  H  H28  1  0.49540000  0.08510000  0.66130000  1
  H  H29  1  0.99540000  0.58510000  0.83870000  1
  H  H30  1  0.17090000  0.75910000  0.20440000  1
  H  H31  1  0.67090000  0.25910000  0.29560000  1
  H  H32  1  0.75900000  0.30550000  0.55480000  1
  H  H33  1  0.25900000  0.80550000  0.94520000  1
  H  H34  1  0.74100000  0.19450000  0.05480000  1
  H  H35  1  0.24100000  0.69450000  0.44520000  1
  H  H36  1  0.32910000  0.74090000  0.70440000  1
  H  H37  1  0.82910000  0.24090000  0.79560000  1
  H  H38  1  0.00460000  0.41490000  0.16130000  1
  H  H39  1  0.50460000  0.91490000  0.33870000  1
  H  H40  1  0.24830000  0.62760000  0.13400000  1
  H  H41  1  0.74830000  0.12760000  0.36600000  1
  H  H42  1  0.24190000  0.56420000  0.63580000  1
  H  H43  1  0.74190000  0.06420000  0.86420000  1
  H  H44  1  0.43220000  0.67570000  0.22670000  1
  H  H45  1  0.93220000  0.17570000  0.27330000  1
  H  H46  1  0.70120000  0.93590000  0.59440000  1
  H  H47  1  0.20120000  0.43590000  0.90560000  1
  H  H48  1  0.24160000  0.45520000  0.17160000  1
  H  H49  1  0.74160000  0.95520000  0.32840000  1
  H  H50  1  0.54700000  0.74950000  0.67470000  1
  H  H51  1  0.04700000  0.24950000  0.82530000  1
  H  H52  1  0.78960000  0.93900000  0.70810000  1
  H  H53  1  0.28960000  0.43900000  0.79190000  1
  H  H54  1  0.02430000  0.15690000  0.16490000  1
  H  H55  1  0.52430000  0.65690000  0.33510000  1
  H  H56  1  0.29330000  0.40550000  0.67360000  1
  H  H57  1  0.79330000  0.90550000  0.82640000  1
  H  H58  1  0.84930000  0.94930000  0.08820000  1
  H  H59  1  0.34930000  0.44930000  0.41180000  1
  H  H60  1  0.24430000  0.28900000  0.11260000  1
  H  H61  1  0.74430000  0.78900000  0.38740000  1
  C  C62  1  0.86800000  0.81100000  0.24654000  1
  C  C63  1  0.36800000  0.31100000  0.25346000  1
  C  C64  1  0.64610000  0.58690000  0.62851000  1
  C  C65  1  0.14610000  0.08690000  0.87149000  1
  C  C66  1  0.19030000  0.12180000  0.74282000  1
  C  C67  1  0.69030000  0.62180000  0.75718000  1
  C  C68  1  0.15390000  0.04550000  0.06669000  1
  C  C69  1  0.65390000  0.54550000  0.43331000  1
  C  C70  1  0.91550000  0.79690000  0.17927000  1
  C  C71  1  0.41550000  0.29690000  0.32073000  1
  C  C72  1  0.27400000  0.15530000  0.61393000  1
  C  C73  1  0.77400000  0.65530000  0.88607000  1
  C  C74  1  0.69760000  0.57070000  0.69457000  1
  C  C75  1  0.19760000  0.07070000  0.80543000  1
  C  C76  1  0.24380000  0.10190000  0.67383000  1
  C  C77  1  0.74380000  0.60190000  0.82617000  1
  C  C78  1  0.20780000  0.04640000  0.14205000  1
  C  C79  1  0.70780000  0.54640000  0.35795000  1
  C  C80  1  0.33660000  0.12870000  0.54854000  1
  C  C81  1  0.83660000  0.62870000  0.95146000  1
  C  C82  1  0.55400000  0.33090000  0.66378000  1
  C  C83  1  0.05400000  0.83090000  0.83622000  1
  C  C84  1  0.77170000  0.53170000  0.20047000  1
  C  C85  1  0.27170000  0.03170000  0.29953000  1
  C  C86  1  0.25670000  0.98420000  0.16692000  1
  C  C87  1  0.75670000  0.48420000  0.33308000  1
  C  C88  1  0.60930000  0.32000000  0.72965000  1
  C  C89  1  0.10930000  0.82000000  0.77035000  1
  C  C90  1  0.82490000  0.53270000  0.13175000  1
  C  C91  1  0.32490000  0.03270000  0.36825000  1
  C  C92  1  0.30920000  0.98690000  0.24136000  1
  C  C93  1  0.80920000  0.48690000  0.25864000  1
  C  C94  1  0.71900000  0.30920000  0.59911000  1
  C  C95  1  0.21900000  0.80920000  0.90089000  1
  C  C96  1  0.72590000  0.30280000  0.73083000  1
  C  C97  1  0.22590000  0.80280000  0.76917000  1
  C  C98  1  0.15110000  0.70110000  0.07114000  1
  C  C99  1  0.65110000  0.20110000  0.42886000  1
  C  C100  1  0.89940000  0.44570000  0.24053000  1
  C  C101  1  0.39940000  0.94570000  0.25947000  1
  C  C102  1  0.28880000  0.82570000  0.63794000  1
  C  C103  1  0.78880000  0.32570000  0.86206000  1
  C  C104  1  0.77880000  0.29820000  0.66306000  1
  C  C105  1  0.27880000  0.79820000  0.83694000  1
  C  C106  1  0.21260000  0.71490000  0.20167000  1
  C  C107  1  0.71260000  0.21490000  0.29833000  1
  C  C108  1  0.55340000  0.05350000  0.67073000  1
  C  C109  1  0.05340000  0.55350000  0.82927000  1
  C  C110  1  0.94660000  0.44650000  0.17073000  1
  C  C111  1  0.44660000  0.94650000  0.32927000  1
  C  C112  1  0.28740000  0.78510000  0.70167000  1
  C  C113  1  0.78740000  0.28510000  0.79833000  1
  C  C114  1  0.72120000  0.20180000  0.16306000  1
  C  C115  1  0.22120000  0.70180000  0.33694000  1
  C  C116  1  0.21120000  0.67430000  0.13794000  1
  C  C117  1  0.71120000  0.17430000  0.36206000  1
  C  C118  1  0.60060000  0.05430000  0.74053000  1
  C  C119  1  0.10060000  0.55430000  0.75947000  1
  C  C120  1  0.34890000  0.79890000  0.57114000  1
  C  C121  1  0.84890000  0.29890000  0.92886000  1
  C  C122  1  0.77410000  0.19720000  0.23083000  1
  C  C123  1  0.27410000  0.69720000  0.26917000  1
  C  C124  1  0.78100000  0.19080000  0.09911000  1
  C  C125  1  0.28100000  0.69080000  0.40089000  1
  C  C126  1  0.19080000  0.51310000  0.74136000  1
  C  C127  1  0.69080000  0.01310000  0.75864000  1
  C  C128  1  0.67510000  0.96730000  0.63175000  1
  C  C129  1  0.17510000  0.46730000  0.86825000  1
  C  C130  1  0.89070000  0.18000000  0.22965000  1
  C  C131  1  0.39070000  0.68000000  0.27035000  1
  C  C132  1  0.24330000  0.51580000  0.66692000  1
  C  C133  1  0.74330000  0.01580000  0.83308000  1
  C  C134  1  0.72830000  0.96830000  0.70047000  1
  C  C135  1  0.22830000  0.46830000  0.79953000  1
  C  C136  1  0.94600000  0.16910000  0.16378000  1
  C  C137  1  0.44600000  0.66910000  0.33622000  1
  C  C138  1  0.16340000  0.37130000  0.04854000  1
  C  C139  1  0.66340000  0.87130000  0.45146000  1
  C  C140  1  0.29220000  0.45360000  0.64205000  1
  C  C141  1  0.79220000  0.95360000  0.85795000  1
  C  C142  1  0.25620000  0.39810000  0.17383000  1
  C  C143  1  0.75620000  0.89810000  0.32617000  1
  C  C144  1  0.80240000  0.92930000  0.19457000  1
  C  C145  1  0.30240000  0.42930000  0.30543000  1
  C  C146  1  0.22600000  0.34470000  0.11393000  1
  C  C147  1  0.72600000  0.84470000  0.38607000  1
  C  C148  1  0.58450000  0.70310000  0.67927000  1
  C  C149  1  0.08450000  0.20310000  0.82073000  1
  C  C150  1  0.34610000  0.45450000  0.56669000  1
  C  C151  1  0.84610000  0.95450000  0.93331000  1
  C  C152  1  0.30970000  0.37820000  0.24282000  1
  C  C153  1  0.80970000  0.87820000  0.25718000  1
  C  C154  1  0.85390000  0.91310000  0.12851000  1
  C  C155  1  0.35390000  0.41310000  0.37149000  1
  C  C156  1  0.63200000  0.68900000  0.74654000  1
  C  C157  1  0.13200000  0.18900000  0.75346000  1
  N  N158  1  0.90959000  0.84799000  0.12040000  1
  N  N159  1  0.40959000  0.34799000  0.37960000  1
  N  N160  1  0.60566000  0.32496000  0.59874000  1
  N  N161  1  0.10566000  0.82496000  0.90126000  1
  N  N162  1  0.91165000  0.49135000  0.11600000  1
  N  N163  1  0.41165000  0.99135000  0.38400000  1
  N  N164  1  0.58835000  0.00865000  0.61600000  1
  N  N165  1  0.08835000  0.50865000  0.88400000  1
  N  N166  1  0.89434000  0.17504000  0.09874000  1
  N  N167  1  0.39434000  0.67504000  0.40126000  1
  N  N168  1  0.59041000  0.65201000  0.62040000  1
  N  N169  1  0.09041000  0.15201000  0.87960000  1
  O  O170  1  0.12822000  0.11742000  0.04998000  1
  O  O171  1  0.62822000  0.61742000  0.45002000  1
  O  O172  1  0.14109000  0.97599000  0.02534000  1
  O  O173  1  0.64109000  0.47599000  0.47466000  1
  O  O174  1  0.86896000  0.68856000  0.00278000  1
  O  O175  1  0.36896000  0.18856000  0.49722000  1
  O  O176  1  0.35147000  0.04987000  0.54864000  1
  O  O177  1  0.85147000  0.54987000  0.95136000  1
  O  O178  1  0.13351000  0.77861000  0.07248000  1
  O  O179  1  0.63351000  0.27861000  0.42752000  1
  O  O180  1  0.12601000  0.64411000  0.01778000  1
  O  O181  1  0.62601000  0.14411000  0.48222000  1
  O  O182  1  0.37399000  0.85589000  0.51778000  1
  O  O183  1  0.87399000  0.35589000  0.98222000  1
  O  O184  1  0.36649000  0.72139000  0.57248000  1
  O  O185  1  0.86649000  0.22139000  0.92752000  1
  O  O186  1  0.14853000  0.45013000  0.04864000  1
  O  O187  1  0.64853000  0.95013000  0.45136000  1
  O  O188  1  0.63104000  0.81144000  0.50278000  1
  O  O189  1  0.13104000  0.31144000  0.99722000  1
  O  O190  1  0.35891000  0.52401000  0.52534000  1
  O  O191  1  0.85891000  0.02401000  0.97466000  1
  O  O192  1  0.37178000  0.38258000  0.54998000  1
  O  O193  1  0.87178000  0.88258000  0.95002000  1
  F  F194  1  0.37810000  0.25570000  0.19891000  1
  F  F195  1  0.87810000  0.75570000  0.30109000  1
  F  F196  1  0.76860000  0.51730000  0.69500000  1
  F  F197  1  0.26860000  0.01730000  0.80500000  1
  F  F198  1  0.60670000  0.21740000  0.15900000  1
  F  F199  1  0.10670000  0.71740000  0.34100000  1
  F  F200  1  0.05435000  0.59785000  0.70697000  1
  F  F201  1  0.55435000  0.09785000  0.79303000  1
  F  F202  1  0.44565000  0.90215000  0.20697000  1
  F  F203  1  0.94565000  0.40215000  0.29303000  1
  F  F204  1  0.89330000  0.28260000  0.65900000  1
  F  F205  1  0.39330000  0.78260000  0.84100000  1
  F  F206  1  0.73140000  0.98270000  0.19500000  1
  F  F207  1  0.23140000  0.48270000  0.30500000  1
  F  F208  1  0.12190000  0.24430000  0.69891000  1
  F  F209  1  0.62190000  0.74430000  0.80109000  1
