# generated using pymatgen
data_Co3H8C14(NO)6
_symmetry_space_group_name_H-M   'P 1'
_cell_length_a   10.91050647
_cell_length_b   10.91050647
_cell_length_c   11.09230000
_cell_angle_alpha   86.61642994
_cell_angle_beta   86.61642994
_cell_angle_gamma   66.19875906
_symmetry_Int_Tables_number   1
_chemical_formula_structural   Co3H8C14(NO)6
_chemical_formula_sum   'Co6 H16 C28 N12 O12'
_cell_volume   1205.11561289
_cell_formula_units_Z   2
loop_
 _symmetry_equiv_pos_site_id
 _symmetry_equiv_pos_as_xyz
  1  'x, y, z'
loop_
 _atom_site_type_symbol
 _atom_site_label
 _atom_site_symmetry_multiplicity
 _atom_site_fract_x
 _atom_site_fract_y
 _atom_site_fract_z
 _atom_site_occupancy
  C  C0  1  0.37000000  0.89000000  0.33240000  1
  C  C1  1  0.89000000  0.37000000  0.83240000  1
  C  C2  1  0.26830000  0.10570000  0.83080000  1
  C  C3  1  0.10570000  0.26830000  0.33080000  1
  C  C4  1  0.29470000  0.08410000  0.70860000  1
  C  C5  1  0.08410000  0.29470000  0.20860000  1
  C  C6  1  0.50140000  0.88980000  0.27860000  1
  C  C7  1  0.88980000  0.50140000  0.77860000  1
  C  C8  1  0.52960000  0.86880000  0.15400000  1
  C  C9  1  0.86880000  0.52960000  0.65400000  1
  C  C10  1  0.35680000  0.12880000  0.90350000  1
  C  C11  1  0.12880000  0.35680000  0.40350000  1
  C  C12  1  0.41100000  0.08740000  0.65000000  1
  C  C13  1  0.08740000  0.41100000  0.15000000  1
  C  C14  1  0.58900000  0.91260000  0.35000000  1
  C  C15  1  0.91260000  0.58900000  0.85000000  1
  C  C16  1  0.64320000  0.87120000  0.09650000  1
  C  C17  1  0.87120000  0.64320000  0.59650000  1
  C  C18  1  0.47040000  0.13120000  0.84600000  1
  C  C19  1  0.13120000  0.47040000  0.34600000  1
  C  C20  1  0.49860000  0.11020000  0.72140000  1
  C  C21  1  0.11020000  0.49860000  0.22140000  1
  C  C22  1  0.70530000  0.91590000  0.29140000  1
  C  C23  1  0.91590000  0.70530000  0.79140000  1
  C  C24  1  0.73170000  0.89430000  0.16920000  1
  C  C25  1  0.89430000  0.73170000  0.66920000  1
  C  C26  1  0.63000000  0.11000000  0.66760000  1
  C  C27  1  0.11000000  0.63000000  0.16760000  1
  Co  Co28  1  0.10063000  0.89937000  0.25000000  1
  Co  Co29  1  0.89937000  0.10063000  0.75000000  1
  Co  Co30  1  0.14414000  0.00994000  0.50434000  1
  Co  Co31  1  0.00994000  0.14414000  0.00434000  1
  Co  Co32  1  0.85586000  0.99006000  0.49566000  1
  Co  Co33  1  0.99006000  0.85586000  0.99566000  1
  H  H34  1  0.18830000  0.89830000  0.04700000  1
  H  H35  1  0.89830000  0.18830000  0.54700000  1
  H  H36  1  0.46860000  0.85260000  0.10910000  1
  H  H37  1  0.85260000  0.46860000  0.60910000  1
  H  H38  1  0.33940000  0.14180000  0.98600000  1
  H  H39  1  0.14180000  0.33940000  0.48600000  1
  H  H40  1  0.57200000  0.92500000  0.43250000  1
  H  H41  1  0.92500000  0.57200000  0.93250000  1
  H  H42  1  0.42800000  0.07500000  0.56750000  1
  H  H43  1  0.07500000  0.42800000  0.06750000  1
  H  H44  1  0.66060000  0.85820000  0.01400000  1
  H  H45  1  0.85820000  0.66060000  0.51400000  1
  H  H46  1  0.53140000  0.14740000  0.89090000  1
  H  H47  1  0.14740000  0.53140000  0.39090000  1
  H  H48  1  0.81170000  0.10170000  0.95300000  1
  H  H49  1  0.10170000  0.81170000  0.45300000  1
  N  N50  1  0.10492000  0.07292000  0.75890000  1
  N  N51  1  0.07292000  0.10492000  0.25890000  1
  N  N52  1  0.14868000  0.09708000  0.86020000  1
  N  N53  1  0.09708000  0.14868000  0.36020000  1
  N  N54  1  0.18921000  0.06481000  0.66520000  1
  N  N55  1  0.06481000  0.18921000  0.16520000  1
  N  N56  1  0.81079000  0.93519000  0.33480000  1
  N  N57  1  0.93519000  0.81079000  0.83480000  1
  N  N58  1  0.85132000  0.90292000  0.13980000  1
  N  N59  1  0.90292000  0.85132000  0.63980000  1
  N  N60  1  0.89508000  0.92708000  0.24110000  1
  N  N61  1  0.92708000  0.89508000  0.74110000  1
  O  O62  1  0.10581000  0.93461000  0.06670000  1
  O  O63  1  0.93461000  0.10581000  0.56670000  1
  O  O64  1  0.30291000  0.85491000  0.26470000  1
  O  O65  1  0.85491000  0.30291000  0.76470000  1
  O  O66  1  0.33740000  0.92560000  0.44120000  1
  O  O67  1  0.92560000  0.33740000  0.94120000  1
  O  O68  1  0.66260000  0.07440000  0.55880000  1
  O  O69  1  0.07440000  0.66260000  0.05880000  1
  O  O70  1  0.69709000  0.14509000  0.73530000  1
  O  O71  1  0.14509000  0.69709000  0.23530000  1
  O  O72  1  0.89419000  0.06539000  0.93330000  1
  O  O73  1  0.06539000  0.89419000  0.43330000  1
