# generated using pymatgen
data_CuH18C30(NO2)4
_symmetry_space_group_name_H-M   'P 1'
_cell_length_a   15.28410000
_cell_length_b   16.72790000
_cell_length_c   17.83737212
_cell_angle_alpha   117.96283129
_cell_angle_beta   115.36804247
_cell_angle_gamma   90.00000000
_symmetry_Int_Tables_number   1
_chemical_formula_structural   CuH18C30(NO2)4
_chemical_formula_sum   'Cu4 H72 C120 N16 O32'
_cell_volume   3522.46569798
_cell_formula_units_Z   4
loop_
 _symmetry_equiv_pos_site_id
 _symmetry_equiv_pos_as_xyz
  1  'x, y, z'
loop_
 _atom_site_type_symbol
 _atom_site_label
 _atom_site_symmetry_multiplicity
 _atom_site_fract_x
 _atom_site_fract_y
 _atom_site_fract_z
 _atom_site_occupancy
  Cu  Cu0  1  0.00000000  0.50000000  0.50000000  1
  Cu  Cu1  1  1.00000000  0.00000000  0.50000000  1
  Cu  Cu2  1  0.50000000  0.50000000  0.50000000  1
  Cu  Cu3  1  0.50000000  0.00000000  0.50000000  1
  H  H4  1  0.98020000  0.72830000  0.67820000  1
  H  H5  1  0.97690000  0.38960000  0.58400000  1
  H  H6  1  0.95360000  0.29420000  0.05460000  1
  H  H7  1  0.95280000  0.38260000  0.20160000  1
  H  H8  1  0.93750000  0.69890000  0.35280000  1
  H  H9  1  0.91530000  0.19890000  0.35280000  1
  H  H10  1  0.89900000  0.73960000  0.94540000  1
  H  H11  1  0.89290000  0.11040000  0.41600000  1
  H  H12  1  0.88640000  0.55370000  0.06100000  1
  H  H13  1  0.86460000  0.73030000  0.63680000  1
  H  H14  1  0.84580000  0.94620000  0.53800000  1
  H  H15  1  0.82540000  0.99270000  0.93900000  1
  H  H16  1  0.81670000  0.86100000  0.60160000  1
  H  H17  1  0.80780000  0.55380000  0.46200000  1
  H  H18  1  0.80200000  0.77170000  0.32180000  1
  H  H19  1  0.78490000  0.24060000  0.60160000  1
  H  H20  1  0.77220000  0.40650000  0.63680000  1
  H  H21  1  0.75120000  0.68100000  0.79840000  1
  H  H22  1  0.74880000  0.88260000  0.20160000  1
  H  H23  1  0.72780000  0.76970000  0.36320000  1
  H  H24  1  0.71510000  0.63900000  0.39840000  1
  H  H25  1  0.69800000  0.44990000  0.67820000  1
  H  H26  1  0.69220000  0.09180000  0.53800000  1
  H  H27  1  0.68330000  0.25940000  0.39840000  1
  H  H28  1  0.67460000  0.05370000  0.06100000  1
  H  H29  1  0.65420000  0.40820000  0.46200000  1
  H  H30  1  0.63540000  0.09350000  0.36320000  1
  H  H31  1  0.61360000  0.49270000  0.93900000  1
  H  H32  1  0.60710000  0.69440000  0.58400000  1
  H  H33  1  0.60100000  0.79420000  0.05460000  1
  H  H34  1  0.58470000  0.84610000  0.64720000  1
  H  H35  1  0.56250000  0.34610000  0.64720000  1
  H  H36  1  0.54720000  0.18100000  0.79840000  1
  H  H37  1  0.54640000  0.23960000  0.94540000  1
  H  H38  1  0.52310000  0.80560000  0.41600000  1
  H  H39  1  0.51980000  0.05010000  0.32180000  1
  H  H40  1  0.48020000  0.94990000  0.67820000  1
  H  H41  1  0.47690000  0.19440000  0.58400000  1
  H  H42  1  0.45360000  0.76040000  0.05460000  1
  H  H43  1  0.45280000  0.81900000  0.20160000  1
  H  H44  1  0.43750000  0.65390000  0.35280000  1
  H  H45  1  0.41530000  0.15390000  0.35280000  1
  H  H46  1  0.39900000  0.20580000  0.94540000  1
  H  H47  1  0.39290000  0.30560000  0.41600000  1
  H  H48  1  0.38640000  0.50730000  0.06100000  1
  H  H49  1  0.36460000  0.90650000  0.63680000  1
  H  H50  1  0.34580000  0.59180000  0.53800000  1
  H  H51  1  0.32540000  0.94630000  0.93900000  1
  H  H52  1  0.31670000  0.74060000  0.60160000  1
  H  H53  1  0.30780000  0.90820000  0.46200000  1
  H  H54  1  0.30200000  0.55010000  0.32180000  1
  H  H55  1  0.28490000  0.36100000  0.60160000  1
  H  H56  1  0.27220000  0.23030000  0.63680000  1
  H  H57  1  0.25120000  0.11740000  0.79840000  1
  H  H58  1  0.24880000  0.31900000  0.20160000  1
  H  H59  1  0.22780000  0.59350000  0.36320000  1
  H  H60  1  0.21510000  0.75940000  0.39840000  1
  H  H61  1  0.19800000  0.22830000  0.67820000  1
  H  H62  1  0.19220000  0.44620000  0.53800000  1
  H  H63  1  0.18330000  0.13900000  0.39840000  1
  H  H64  1  0.17460000  0.00730000  0.06100000  1
  H  H65  1  0.15420000  0.05380000  0.46200000  1
  H  H66  1  0.13540000  0.26970000  0.36320000  1
  H  H67  1  0.11360000  0.44630000  0.93900000  1
  H  H68  1  0.10710000  0.88960000  0.58400000  1
  H  H69  1  0.10100000  0.26040000  0.05460000  1
  H  H70  1  0.08470000  0.80110000  0.64720000  1
  H  H71  1  0.06250000  0.30110000  0.64720000  1
  H  H72  1  0.04720000  0.61740000  0.79840000  1
  H  H73  1  0.04640000  0.70580000  0.94540000  1
  H  H74  1  0.02310000  0.61040000  0.41600000  1
  H  H75  1  0.01980000  0.27170000  0.32180000  1
  C  C76  1  0.98644000  0.62994000  0.79788000  1
  C  C77  1  0.98640000  0.68320000  0.88580000  1
  C  C78  1  0.97239000  0.46549000  0.90598000  1
  C  C79  1  0.96545000  0.05635000  0.06030000  1
  C  C80  1  0.96504000  0.16894000  0.37388000  1
  C  C81  1  0.95981000  0.61651000  0.41242000  1
  C  C82  1  0.95261000  0.11651000  0.41242000  1
  C  C83  1  0.95237000  0.12407000  0.14374000  1
  C  C84  1  0.94927000  0.82367000  0.63294000  1
  C  C85  1  0.93406000  0.76976000  0.67692000  1
  C  C86  1  0.93359000  0.94049000  0.90598000  1
  C  C87  1  0.93139000  0.53229000  0.03658000  1
  C  C88  1  0.91931000  0.42871000  0.79882000  1
  C  C89  1  0.90884000  0.66894000  0.37388000  1
  C  C90  1  0.90515000  0.49605000  0.93970000  1
  C  C91  1  0.89983000  0.53253000  0.61746000  1
  C  C92  1  0.89940000  0.70260000  0.88580000  1
  C  C93  1  0.89939000  0.59479000  0.70958000  1
  C  C94  1  0.89507000  0.91677000  0.56094000  1
  C  C95  1  0.89481000  0.99571000  0.96342000  1
  C  C96  1  0.87951000  0.87011000  0.79882000  1
  C  C97  1  0.87720000  0.86620000  0.59900000  1
  C  C98  1  0.83413000  0.58323000  0.43906000  1
  C  C99  1  0.81633000  0.67633000  0.36706000  1
  C  C100  1  0.81144000  0.66794000  0.79788000  1
  C  C101  1  0.81019000  0.61479000  0.70958000  1
  C  C102  1  0.80863000  0.48033000  0.85626000  1
  C  C103  1  0.78237000  0.96747000  0.38254000  1
  C  C104  1  0.77820000  0.63380000  0.40100000  1
  C  C105  1  0.75714000  0.73024000  0.32308000  1
  C  C106  1  0.74286000  0.40716000  0.67692000  1
  C  C107  1  0.72180000  0.23280000  0.59900000  1
  C  C108  1  0.71763000  0.58493000  0.61746000  1
  C  C109  1  0.69137000  0.62407000  0.14374000  1
  C  C110  1  0.68981000  0.90521000  0.29042000  1
  C  C111  1  0.68856000  0.87006000  0.20212000  1
  C  C112  1  0.68367000  0.30927000  0.63294000  1
  C  C113  1  0.66587000  0.14417000  0.56094000  1
  C  C114  1  0.62280000  0.26720000  0.40100000  1
  C  C115  1  0.62049000  0.07129000  0.20118000  1
  C  C116  1  0.60519000  0.03229000  0.03658000  1
  C  C117  1  0.60493000  0.35583000  0.43906000  1
  C  C118  1  0.60061000  0.88521000  0.29042000  1
  C  C119  1  0.60060000  0.81680000  0.11420000  1
  C  C120  1  0.60017000  0.91507000  0.38254000  1
  C  C121  1  0.59485000  0.55635000  0.06030000  1
  C  C122  1  0.59116000  0.29506000  0.62612000  1
  C  C123  1  0.58069000  0.62989000  0.20118000  1
  C  C124  1  0.56861000  0.49571000  0.96342000  1
  C  C125  1  0.56641000  0.03451000  0.09402000  1
  C  C126  1  0.56594000  0.09284000  0.32308000  1
  C  C127  1  0.55073000  0.19073000  0.36706000  1
  C  C128  1  0.54763000  0.98033000  0.85626000  1
  C  C129  1  0.54739000  0.70409000  0.58758000  1
  C  C130  1  0.54019000  0.20409000  0.58758000  1
  C  C131  1  0.53496000  0.79506000  0.62612000  1
  C  C132  1  0.53455000  0.99605000  0.93970000  1
  C  C133  1  0.52761000  0.55951000  0.09402000  1
  C  C134  1  0.51360000  0.79740000  0.11420000  1
  C  C135  1  0.51356000  0.83206000  0.20212000  1
  C  C136  1  0.48644000  0.16794000  0.79788000  1
  C  C137  1  0.48640000  0.20260000  0.88580000  1
  C  C138  1  0.47239000  0.44049000  0.90598000  1
  C  C139  1  0.46545000  0.00395000  0.06030000  1
  C  C140  1  0.46504000  0.20494000  0.37388000  1
  C  C141  1  0.45981000  0.79591000  0.41242000  1
  C  C142  1  0.45261000  0.29591000  0.41242000  1
  C  C143  1  0.45237000  0.01967000  0.14374000  1
  C  C144  1  0.44927000  0.80927000  0.63294000  1
  C  C145  1  0.43406000  0.90716000  0.67692000  1
  C  C146  1  0.43359000  0.96549000  0.90598000  1
  C  C147  1  0.43139000  0.50429000  0.03658000  1
  C  C148  1  0.41931000  0.37011000  0.79882000  1
  C  C149  1  0.40884000  0.70494000  0.37388000  1
  C  C150  1  0.40515000  0.44365000  0.93970000  1
  C  C151  1  0.39983000  0.08493000  0.61746000  1
  C  C152  1  0.39940000  0.18320000  0.88580000  1
  C  C153  1  0.39939000  0.11479000  0.70958000  1
  C  C154  1  0.39507000  0.64417000  0.56094000  1
  C  C155  1  0.39481000  0.96771000  0.96342000  1
  C  C156  1  0.37951000  0.92871000  0.79882000  1
  C  C157  1  0.37720000  0.73280000  0.59900000  1
  C  C158  1  0.33413000  0.85583000  0.43906000  1
  C  C159  1  0.31633000  0.69073000  0.36706000  1
  C  C160  1  0.31144000  0.12994000  0.79788000  1
  C  C161  1  0.31019000  0.09479000  0.70958000  1
  C  C162  1  0.30863000  0.37593000  0.85626000  1
  C  C163  1  0.28237000  0.41507000  0.38254000  1
  C  C164  1  0.27820000  0.76720000  0.40100000  1
  C  C165  1  0.25714000  0.59284000  0.32308000  1
  C  C166  1  0.24286000  0.26976000  0.67692000  1
  C  C167  1  0.22180000  0.36620000  0.59900000  1
  C  C168  1  0.21763000  0.03253000  0.61746000  1
  C  C169  1  0.19137000  0.51967000  0.14374000  1
  C  C170  1  0.18981000  0.38521000  0.29042000  1
  C  C171  1  0.18856000  0.33206000  0.20212000  1
  C  C172  1  0.18367000  0.32367000  0.63294000  1
  C  C173  1  0.16587000  0.41677000  0.56094000  1
  C  C174  1  0.12280000  0.13380000  0.40100000  1
  C  C175  1  0.12049000  0.12989000  0.20118000  1
  C  C176  1  0.10519000  0.00429000  0.03658000  1
  C  C177  1  0.10493000  0.08323000  0.43906000  1
  C  C178  1  0.10061000  0.40521000  0.29042000  1
  C  C179  1  0.10060000  0.29740000  0.11420000  1
  C  C180  1  0.10017000  0.46747000  0.38254000  1
  C  C181  1  0.09485000  0.50395000  0.06030000  1
  C  C182  1  0.09116000  0.33106000  0.62612000  1
  C  C183  1  0.08069000  0.57129000  0.20118000  1
  C  C184  1  0.06861000  0.46771000  0.96342000  1
  C  C185  1  0.06641000  0.05951000  0.09402000  1
  C  C186  1  0.06594000  0.23024000  0.32308000  1
  C  C187  1  0.05073000  0.17633000  0.36706000  1
  C  C188  1  0.04763000  0.87593000  0.85626000  1
  C  C189  1  0.04739000  0.88349000  0.58758000  1
  C  C190  1  0.04019000  0.38349000  0.58758000  1
  C  C191  1  0.03496000  0.83106000  0.62612000  1
  C  C192  1  0.03455000  0.94365000  0.93970000  1
  C  C193  1  0.02761000  0.53451000  0.09402000  1
  C  C194  1  0.01360000  0.31680000  0.11420000  1
  C  C195  1  0.01356000  0.37006000  0.20212000  1
  N  N196  1  0.97813000  0.92543000  0.55546000  1
  N  N197  1  0.95295000  0.83495000  0.77570000  1
  N  N198  1  0.92267000  0.57457000  0.44454000  1
  N  N199  1  0.82275000  0.44075000  0.77570000  1
  N  N200  1  0.67725000  0.66505000  0.22430000  1
  N  N201  1  0.57733000  0.13003000  0.55546000  1
  N  N202  1  0.54705000  0.05925000  0.22430000  1
  N  N203  1  0.52187000  0.36997000  0.44454000  1
  N  N204  1  0.47813000  0.63003000  0.55546000  1
  N  N205  1  0.45295000  0.94075000  0.77570000  1
  N  N206  1  0.42267000  0.86997000  0.44454000  1
  N  N207  1  0.32275000  0.33495000  0.77570000  1
  N  N208  1  0.17725000  0.55925000  0.22430000  1
  N  N209  1  0.07733000  0.42543000  0.55546000  1
  N  N210  1  0.04705000  0.16505000  0.22430000  1
  N  N211  1  0.02187000  0.07457000  0.44454000  1
  O  O212  1  0.97208000  0.56068000  0.60976000  1
  O  O213  1  0.95061000  0.39441000  0.74202000  1
  O  O214  1  0.87530000  0.14120000  0.14440000  1
  O  O215  1  0.86232000  0.93932000  0.39024000  1
  O  O216  1  0.83435000  0.45765000  0.55490000  1
  O  O217  1  0.79141000  0.84761000  0.74202000  1
  O  O218  1  0.77945000  0.04235000  0.44510000  1
  O  O219  1  0.76910000  0.64120000  0.14440000  1
  O  O220  1  0.73090000  0.49680000  0.85560000  1
  O  O221  1  0.72055000  0.59725000  0.55490000  1
  O  O222  1  0.70859000  0.10559000  0.25798000  1
  O  O223  1  0.66565000  0.90275000  0.44510000  1
  O  O224  1  0.63768000  0.54908000  0.60976000  1
  O  O225  1  0.62470000  0.99680000  0.85560000  1
  O  O226  1  0.54939000  0.65239000  0.25798000  1
  O  O227  1  0.52792000  0.95092000  0.39024000  1
  O  O228  1  0.47208000  0.04908000  0.60976000  1
  O  O229  1  0.45061000  0.34761000  0.74202000  1
  O  O230  1  0.37530000  0.00320000  0.14440000  1
  O  O231  1  0.36232000  0.45092000  0.39024000  1
  O  O232  1  0.33435000  0.09725000  0.55490000  1
  O  O233  1  0.29141000  0.89441000  0.74202000  1
  O  O234  1  0.27945000  0.40275000  0.44510000  1
  O  O235  1  0.26910000  0.50320000  0.14440000  1
  O  O236  1  0.23090000  0.35880000  0.85560000  1
  O  O237  1  0.22055000  0.95765000  0.55490000  1
  O  O238  1  0.20859000  0.15239000  0.25798000  1
  O  O239  1  0.16565000  0.54235000  0.44510000  1
  O  O240  1  0.13768000  0.06068000  0.60976000  1
  O  O241  1  0.12470000  0.85880000  0.85560000  1
  O  O242  1  0.04939000  0.60559000  0.25798000  1
  O  O243  1  0.02792000  0.43932000  0.39024000  1
