# generated using pymatgen
data_ZnH12C18N2O3
_symmetry_space_group_name_H-M   'P 1'
_cell_length_a   5.32870000
_cell_length_b   18.88241697
_cell_length_c   18.88241697
_cell_angle_alpha   88.85917584
_cell_angle_beta   81.88837094
_cell_angle_gamma   81.88837094
_symmetry_Int_Tables_number   1
_chemical_formula_structural   ZnH12C18N2O3
_chemical_formula_sum   'Zn4 H48 C72 N8 O12'
_cell_volume   1862.09774814
_cell_formula_units_Z   4
loop_
 _symmetry_equiv_pos_site_id
 _symmetry_equiv_pos_as_xyz
  1  'x, y, z'
loop_
 _atom_site_type_symbol
 _atom_site_label
 _atom_site_symmetry_multiplicity
 _atom_site_fract_x
 _atom_site_fract_y
 _atom_site_fract_z
 _atom_site_occupancy
  C  C0  1  0.64680000  0.80720000  0.19120000  1
  C  C1  1  0.68489000  0.23008000  0.74694000  1
  C  C2  1  0.62160000  0.70000000  0.25480000  1
  C  C3  1  0.42090000  0.36060000  0.57040000  1
  C  C4  1  0.11278000  0.28736000  0.63188000  1
  C  C5  1  0.57830000  0.78140000  0.13400000  1
  C  C6  1  0.62550000  0.36680000  0.52000000  1
  C  C7  1  0.31950000  0.29456000  0.57884000  1
  C  C8  1  0.02377000  0.22213000  0.63893000  1
  C  C9  1  0.57990000  0.66720000  0.19100000  1
  C  C10  1  0.00770000  0.48000000  0.36680000  1
  C  C11  1  0.56473000  0.70387000  0.13387000  1
  C  C12  1  0.94730000  0.52350000  0.30910000  1
  C  C13  1  0.83172000  0.12738000  0.66458000  1
  C  C14  1  0.21850000  0.42960000  0.36060000  1
  C  C15  1  0.74360000  0.30910000  0.47650000  1
  C  C16  1  0.43040000  0.23717000  0.53163000  1
  C  C17  1  0.10700000  0.51760000  0.24560000  1
  C  C18  1  0.12780000  0.16533000  0.59067000  1
  C  C19  1  0.52780000  0.67330000  0.06510000  1
  C  C20  1  0.64740000  0.24560000  0.48240000  1
  C  C21  1  0.38594000  0.42116000  0.29456000  1
  C  C22  1  0.33395000  0.17161000  0.53809000  1
  C  C23  1  0.33243000  0.46837000  0.23717000  1
  C  C24  1  0.59986000  0.36812000  0.28736000  1
  C  C25  1  0.64030000  0.86600000  0.78140000  1
  C  C26  1  0.49444000  0.46191000  0.17161000  1
  C  C27  1  0.54600000  0.80880000  0.80720000  1
  C  C28  1  0.79890000  0.93490000  0.67330000  1
  C  C29  1  0.75410000  0.36107000  0.22213000  1
  C  C30  1  0.70687000  0.40933000  0.16533000  1
  C  C31  1  0.73140000  0.86613000  0.70387000  1
  C  C32  1  0.12360000  0.25480000  0.30000000  1
  C  C33  1  0.50370000  0.66458000  0.87262000  1
  C  C34  1  0.22910000  0.19100000  0.33280000  1
  C  C35  1  0.56817000  0.74694000  0.76992000  1
  C  C36  1  0.08503000  0.25306000  0.23008000  1
  C  C37  1  0.75290000  0.80900000  0.66720000  1
  C  C38  1  0.04090000  0.33542000  0.12738000  1
  C  C39  1  0.67840000  0.74520000  0.70000000  1
  C  C40  1  0.30140000  0.13387000  0.29613000  1
  C  C41  1  0.28153000  0.59067000  0.83467000  1
  C  C42  1  0.33730000  0.63893000  0.77787000  1
  C  C43  1  0.40710000  0.06510000  0.32670000  1
  C  C44  1  0.16200000  0.19120000  0.19280000  1
  C  C45  1  0.12796000  0.53809000  0.82839000  1
  C  C46  1  0.28770000  0.13400000  0.21860000  1
  C  C47  1  0.25534000  0.63188000  0.71264000  1
  C  C48  1  0.03797000  0.53163000  0.76283000  1
  C  C49  1  0.04365000  0.82839000  0.46191000  1
  C  C50  1  0.10166000  0.57884000  0.70544000  1
  C  C51  1  0.37540000  0.75440000  0.51760000  1
  C  C52  1  0.26620000  0.32670000  0.93490000  1
  C  C53  1  0.88380000  0.83467000  0.40933000  1
  C  C54  1  0.87020000  0.48240000  0.75440000  1
  C  C55  1  0.19920000  0.76283000  0.46837000  1
  C  C56  1  0.52920000  0.69090000  0.52350000  1
  C  C57  1  0.00870000  0.57040000  0.63940000  1
  C  C58  1  0.62368000  0.87262000  0.33542000  1
  C  C59  1  0.77990000  0.47650000  0.69090000  1
  C  C60  1  0.40247000  0.29613000  0.86613000  1
  C  C61  1  0.85450000  0.52000000  0.63320000  1
  C  C62  1  0.43810000  0.33280000  0.80900000  1
  C  C63  1  0.88483000  0.77787000  0.36107000  1
  C  C64  1  0.19290000  0.70544000  0.42116000  1
  C  C65  1  0.51230000  0.63320000  0.48000000  1
  C  C66  1  0.49370000  0.21860000  0.86600000  1
  C  C67  1  0.03202000  0.71264000  0.36812000  1
  C  C68  1  0.35190000  0.63940000  0.42960000  1
  C  C69  1  0.57640000  0.30000000  0.74520000  1
  C  C70  1  0.66191000  0.76992000  0.25306000  1
  C  C71  1  0.64520000  0.19280000  0.80880000  1
  H  H72  1  0.34700000  0.39950000  0.59930000  1
  H  H73  1  0.03760000  0.32550000  0.66150000  1
  H  H74  1  0.62120000  0.67400000  0.29720000  1
  H  H75  1  0.73080000  0.14650000  0.81070000  1
  H  H76  1  0.68840000  0.41040000  0.51440000  1
  H  H77  1  0.53970000  0.81050000  0.09550000  1
  H  H78  1  0.90120000  0.48560000  0.41040000  1
  H  H79  1  0.79860000  0.55640000  0.31380000  1
  H  H80  1  0.56340000  0.61880000  0.19100000  1
  H  H81  1  0.25350000  0.40070000  0.39950000  1
  H  H82  1  0.72270000  0.09750000  0.68830000  1
  H  H83  1  0.88760000  0.31380000  0.44360000  1
  H  H84  1  0.06580000  0.54680000  0.20740000  1
  H  H85  1  0.64980000  0.90450000  0.81050000  1
  H  H86  1  0.45850000  0.81070000  0.85350000  1
  H  H87  1  0.63690000  0.33850000  0.32550000  1
  H  H88  1  0.72680000  0.20740000  0.45320000  1
  H  H89  1  0.40590000  0.13340000  0.50800000  1
  H  H90  1  0.46070000  0.49200000  0.13340000  1
  H  H91  1  0.08160000  0.29720000  0.32600000  1
  H  H92  1  0.87240000  0.54497000  0.06003000  1
  H  H93  1  0.58900000  0.68830000  0.90250000  1
  H  H94  1  0.24560000  0.19100000  0.38120000  1
  H  H95  1  0.06757000  0.06003000  0.45503000  1
  H  H96  1  0.58263000  0.93997000  0.54497000  1
  H  H97  1  0.81780000  0.80900000  0.61880000  1
  H  H98  1  0.17980000  0.31170000  0.09750000  1
  H  H99  1  0.47740000  0.45503000  0.93997000  1
  H  H100  1  0.70480000  0.70280000  0.67400000  1
  H  H101  1  0.08610000  0.50800000  0.86660000  1
  H  H102  1  0.04730000  0.86660000  0.49200000  1
  H  H103  1  0.38740000  0.79260000  0.54680000  1
  H  H104  1  0.30090000  0.66150000  0.67450000  1
  H  H105  1  0.12270000  0.18930000  0.14650000  1
  H  H106  1  0.36480000  0.09550000  0.18950000  1
  H  H107  1  0.82000000  0.45320000  0.79260000  1
  H  H108  1  0.64500000  0.68620000  0.55640000  1
  H  H109  1  0.50850000  0.90250000  0.31170000  1
  H  H110  1  0.05370000  0.59930000  0.60050000  1
  H  H111  1  0.37320000  0.38120000  0.80900000  1
  H  H112  1  0.66880000  0.44360000  0.68620000  1
  H  H113  1  0.79720000  0.51440000  0.58960000  1
  H  H114  1  0.44570000  0.18950000  0.90450000  1
  H  H115  1  0.61320000  0.58960000  0.48560000  1
  H  H116  1  0.68800000  0.85350000  0.18930000  1
  H  H117  1  0.59240000  0.32600000  0.70280000  1
  H  H118  1  0.02460000  0.67450000  0.33850000  1
  H  H119  1  0.34580000  0.60050000  0.40070000  1
  N  N120  1  0.83447000  0.19600000  0.68426000  1
  N  N121  1  0.99779000  0.10808000  0.60914000  1
  N  N122  1  0.96953000  0.31574000  0.19600000  1
  N  N123  1  0.39307000  0.60914000  0.89192000  1
  N  N124  1  0.89413000  0.39086000  0.10808000  1
  N  N125  1  0.48127000  0.68426000  0.80400000  1
  N  N126  1  0.71501000  0.89192000  0.39086000  1
  N  N127  1  0.71473000  0.80400000  0.31574000  1
  O  O128  1  0.46010000  0.70260000  0.01320000  1
  O  O129  1  0.83730000  0.98680000  0.70260000  1
  O  O130  1  0.52546000  0.61063000  0.05905000  1
  O  O131  1  0.06778000  0.52984000  0.02220000  1
  O  O132  1  0.86391000  0.94095000  0.61063000  1
  O  O133  1  0.40238000  0.97780000  0.52984000  1
  O  O134  1  0.91002000  0.02220000  0.47016000  1
  O  O135  1  0.41549000  0.05905000  0.38937000  1
  O  O136  1  0.61982000  0.47016000  0.97780000  1
  O  O137  1  0.19514000  0.38937000  0.94095000  1
  O  O138  1  0.52670000  0.01320000  0.29740000  1
  O  O139  1  0.17590000  0.29740000  0.98680000  1
  Zn  Zn140  1  0.04750000  0.01133000  0.55887000  1
  Zn  Zn141  1  0.39363000  0.55887000  0.98867000  1
  Zn  Zn142  1  0.94117000  0.44113000  0.01133000  1
  Zn  Zn143  1  0.61770000  0.98867000  0.44113000  1
