# generated using pymatgen
data_ZnH8C12(IN2)2
_symmetry_space_group_name_H-M   'P 1'
_cell_length_a   14.92020000
_cell_length_b   19.19770000
_cell_length_c   31.23330000
_cell_angle_alpha   102.45200000
_cell_angle_beta   90.00000000
_cell_angle_gamma   112.86700000
_symmetry_Int_Tables_number   1
_chemical_formula_structural   ZnH8C12(IN2)2
_chemical_formula_sum   'Zn12 H96 C144 I24 N48'
_cell_volume   8014.28764720
_cell_formula_units_Z   12
loop_
 _symmetry_equiv_pos_site_id
 _symmetry_equiv_pos_as_xyz
  1  'x, y, z'
loop_
 _atom_site_type_symbol
 _atom_site_label
 _atom_site_symmetry_multiplicity
 _atom_site_fract_x
 _atom_site_fract_y
 _atom_site_fract_z
 _atom_site_occupancy
  Zn  Zn0  1  0.03723000  0.83788000  0.40642000  1
  Zn  Zn1  1  0.17875000  0.64856000  0.21986000  1
  Zn  Zn2  1  0.19935000  0.16212000  0.09358000  1
  Zn  Zn3  1  0.27749000  0.75160000  0.94197000  1
  Zn  Zn4  1  0.46981000  0.64856000  0.71986000  1
  Zn  Zn5  1  0.47411000  0.75160000  0.44197000  1
  Zn  Zn6  1  0.52589000  0.24840000  0.55803000  1
  Zn  Zn7  1  0.53019000  0.35144000  0.28014000  1
  Zn  Zn8  1  0.72251000  0.24840000  0.05803000  1
  Zn  Zn9  1  0.80065000  0.83788000  0.90642000  1
  Zn  Zn10  1  0.82125000  0.35144000  0.78014000  1
  Zn  Zn11  1  0.96277000  0.16212000  0.59358000  1
  H  H12  1  0.00750000  0.96280000  0.93590000  1
  H  H13  1  0.00790000  0.31300000  0.66260000  1
  H  H14  1  0.01540000  0.73620000  0.81340000  1
  H  H15  1  0.01950000  0.20320000  0.97300000  1
  H  H16  1  0.02540000  0.18380000  0.13100000  1
  H  H17  1  0.04470000  0.03720000  0.56410000  1
  H  H18  1  0.06820000  0.21900000  0.51970000  1
  H  H19  1  0.08680000  0.64440000  0.13230000  1
  H  H20  1  0.09920000  0.72460000  0.08490000  1
  H  H21  1  0.10980000  0.49660000  0.67070000  1
  H  H22  1  0.12260000  0.39460000  0.72010000  1
  H  H23  1  0.13360000  0.60280000  0.37130000  1
  H  H24  1  0.14430000  0.98240000  0.97970000  1
  H  H25  1  0.15080000  0.21900000  0.01970000  1
  H  H26  1  0.15840000  0.18380000  0.63100000  1
  H  H27  1  0.16190000  0.01760000  0.52030000  1
  H  H28  1  0.17310000  0.69420000  0.76460000  1
  H  H29  1  0.18290000  0.63800000  0.85470000  1
  H  H30  1  0.18370000  0.20320000  0.47300000  1
  H  H31  1  0.20720000  0.54140000  0.80350000  1
  H  H32  1  0.24780000  0.52300000  0.17290000  1
  H  H33  1  0.26050000  0.69620000  0.42060000  1
  H  H34  1  0.27200000  0.39460000  0.22010000  1
  H  H35  1  0.27520000  0.52300000  0.67290000  1
  H  H36  1  0.27920000  0.26380000  0.68660000  1
  H  H37  1  0.30510000  0.31300000  0.16260000  1
  H  H38  1  0.31650000  0.80400000  0.20800000  1
  H  H39  1  0.31700000  0.93820000  0.49570000  1
  H  H40  1  0.33420000  0.54140000  0.30350000  1
  H  H41  1  0.33690000  0.71600000  0.76270000  1
  H  H42  1  0.34190000  0.88580000  0.16040000  1
  H  H43  1  0.35200000  0.89320000  0.90580000  1
  H  H44  1  0.36290000  0.83700000  0.49580000  1
  H  H45  1  0.37460000  0.27540000  0.41510000  1
  H  H46  1  0.37880000  0.06180000  0.00430000  1
  H  H47  1  0.37910000  0.71600000  0.26270000  1
  H  H48  1  0.38680000  0.49660000  0.17070000  1
  H  H49  1  0.43570000  0.69620000  0.92060000  1
  H  H50  1  0.44240000  0.35560000  0.36770000  1
  H  H51  1  0.45510000  0.63800000  0.35470000  1
  H  H52  1  0.45610000  0.11420000  0.33960000  1
  H  H53  1  0.45880000  0.10680000  0.59420000  1
  H  H54  1  0.46920000  0.60280000  0.87130000  1
  H  H55  1  0.47410000  0.83700000  0.99580000  1
  H  H56  1  0.47890000  0.30580000  0.73540000  1
  H  H57  1  0.48750000  0.80400000  0.70800000  1
  H  H58  1  0.49640000  0.99580000  0.90260000  1
  H  H59  1  0.49940000  0.99580000  0.40260000  1
  H  H60  1  0.50060000  0.00420000  0.59740000  1
  H  H61  1  0.50360000  0.00420000  0.09740000  1
  H  H62  1  0.51250000  0.19600000  0.29200000  1
  H  H63  1  0.52110000  0.69420000  0.26460000  1
  H  H64  1  0.52590000  0.16300000  0.00420000  1
  H  H65  1  0.53080000  0.39720000  0.12870000  1
  H  H66  1  0.54120000  0.89320000  0.40580000  1
  H  H67  1  0.54390000  0.88580000  0.66040000  1
  H  H68  1  0.54490000  0.36200000  0.64530000  1
  H  H69  1  0.55760000  0.64440000  0.63230000  1
  H  H70  1  0.56430000  0.30380000  0.07940000  1
  H  H71  1  0.61320000  0.50340000  0.82930000  1
  H  H72  1  0.62090000  0.28400000  0.73730000  1
  H  H73  1  0.62120000  0.93820000  0.99570000  1
  H  H74  1  0.62540000  0.72460000  0.58490000  1
  H  H75  1  0.63710000  0.16300000  0.50420000  1
  H  H76  1  0.64800000  0.10680000  0.09420000  1
  H  H77  1  0.65810000  0.11420000  0.83960000  1
  H  H78  1  0.66310000  0.28400000  0.23730000  1
  H  H79  1  0.66580000  0.45860000  0.69650000  1
  H  H80  1  0.68300000  0.06180000  0.50430000  1
  H  H81  1  0.68350000  0.19600000  0.79200000  1
  H  H82  1  0.69490000  0.68700000  0.83740000  1
  H  H83  1  0.72080000  0.73620000  0.31340000  1
  H  H84  1  0.72480000  0.47700000  0.32710000  1
  H  H85  1  0.72800000  0.60540000  0.77990000  1
  H  H86  1  0.73950000  0.30380000  0.57940000  1
  H  H87  1  0.75220000  0.47700000  0.82710000  1
  H  H88  1  0.79280000  0.45860000  0.19650000  1
  H  H89  1  0.81630000  0.79680000  0.52700000  1
  H  H90  1  0.81710000  0.36200000  0.14530000  1
  H  H91  1  0.82690000  0.30580000  0.23540000  1
  H  H92  1  0.83810000  0.98240000  0.47970000  1
  H  H93  1  0.84160000  0.81620000  0.36900000  1
  H  H94  1  0.84920000  0.78100000  0.98030000  1
  H  H95  1  0.85570000  0.01760000  0.02030000  1
  H  H96  1  0.86640000  0.39720000  0.62870000  1
  H  H97  1  0.87740000  0.60540000  0.27990000  1
  H  H98  1  0.89020000  0.50340000  0.32930000  1
  H  H99  1  0.90080000  0.27540000  0.91510000  1
  H  H100  1  0.91320000  0.35560000  0.86770000  1
  H  H101  1  0.93180000  0.78100000  0.48030000  1
  H  H102  1  0.95530000  0.96280000  0.43590000  1
  H  H103  1  0.97460000  0.81620000  0.86900000  1
  H  H104  1  0.98050000  0.79680000  0.02700000  1
  H  H105  1  0.98460000  0.26380000  0.18660000  1
  H  H106  1  0.99210000  0.68700000  0.33740000  1
  H  H107  1  0.99250000  0.03720000  0.06410000  1
  C  C108  1  0.00270000  0.92780000  0.95400000  1
  C  C109  1  0.01150000  0.16920000  0.99210000  1
  C  C110  1  0.01748000  0.57776000  0.71990000  1
  C  C111  1  0.05130000  0.27500000  0.18230000  1
  C  C112  1  0.06390000  0.30280000  0.66770000  1
  C  C113  1  0.07490000  0.07220000  0.54600000  1
  C  C114  1  0.07600000  0.22780000  0.14920000  1
  C  C115  1  0.07810000  0.89000000  0.00700000  1
  C  C116  1  0.08431000  0.94002000  0.98010000  1
  C  C117  1  0.08840000  0.17780000  0.52000000  1
  C  C118  1  0.08940000  0.17780000  0.02000000  1
  C  C119  1  0.09726000  0.39032000  0.24510000  1
  C  C120  1  0.12299000  0.59278000  0.71810000  1
  C  C121  1  0.12371000  0.33842000  0.20940000  1
  C  C122  1  0.13200000  0.35200000  0.70190000  1
  C  C123  1  0.13820000  0.69460000  0.13830000  1
  C  C124  1  0.14171000  0.49562000  0.30150000  1
  C  C125  1  0.14429000  0.05998000  0.51990000  1
  C  C126  1  0.14600000  0.74180000  0.10970000  1
  C  C127  1  0.15180000  0.22780000  0.64920000  1
  C  C128  1  0.15520000  0.54200000  0.69030000  1
  C  C129  1  0.15770000  0.16920000  0.49210000  1
  C  C130  1  0.16601000  0.89862000  0.03395000  1
  C  C131  1  0.18810000  0.11000000  0.49300000  1
  C  C132  1  0.19220000  0.65800000  0.74520000  1
  C  C133  1  0.19890000  0.60820000  0.36740000  1
  C  C134  1  0.21471000  0.33842000  0.70940000  1
  C  C135  1  0.21980000  0.56000000  0.33240000  1
  C  C136  1  0.22000000  0.35200000  0.20190000  1
  C  C137  1  0.22223000  0.81386000  0.11720000  1
  C  C138  1  0.22370000  0.27500000  0.68230000  1
  C  C139  1  0.23276000  0.86432000  0.08630000  1
  C  C140  1  0.23890000  0.30280000  0.16770000  1
  C  C141  1  0.24118000  0.62996000  0.85800000  1
  C  C142  1  0.25390000  0.55840000  0.69160000  1
  C  C143  1  0.25493000  0.57226000  0.82750000  1
  C  C144  1  0.26739000  0.10138000  0.46605000  1
  C  C145  1  0.27300000  0.78720000  0.18210000  1
  C  C146  1  0.27500000  0.66400000  0.39640000  1
  C  C147  1  0.28790000  0.83680000  0.15430000  1
  C  C148  1  0.28970000  0.67040000  0.74400000  1
  C  C149  1  0.29306000  0.39032000  0.74510000  1
  C  C150  1  0.30450000  0.55840000  0.19160000  1
  C  C151  1  0.31733000  0.57226000  0.32750000  1
  C  C152  1  0.32640000  0.96100000  0.05550000  1
  C  C153  1  0.34020000  0.56000000  0.83240000  1
  C  C154  1  0.35391000  0.49562000  0.80150000  1
  C  C155  1  0.36110000  0.92880000  0.47560000  1
  C  C156  1  0.36540000  0.03900000  0.44450000  1
  C  C157  1  0.36844000  0.13568000  0.41370000  1
  C  C158  1  0.38070000  0.67040000  0.24400000  1
  C  C159  1  0.38680000  0.54200000  0.19030000  1
  C  C160  1  0.38878000  0.62996000  0.35800000  1
  C  C161  1  0.38890000  0.86840000  0.47550000  1
  C  C162  1  0.38900000  0.66400000  0.89640000  1
  C  C163  1  0.39680000  0.97540000  0.44670000  1
  C  C164  1  0.40420000  0.25820000  0.39030000  1
  C  C165  1  0.40837000  0.18614000  0.38280000  1
  C  C166  1  0.40880000  0.90100000  0.92330000  1
  C  C167  1  0.40930000  0.60820000  0.86740000  1
  C  C168  1  0.42140000  0.02460000  0.05330000  1
  C  C169  1  0.43230000  0.07120000  0.02440000  1
  C  C170  1  0.43972000  0.42224000  0.78010000  1
  C  C171  1  0.44360000  0.30540000  0.36170000  1
  C  C172  1  0.45110000  0.16320000  0.34570000  1
  C  C173  1  0.46580000  0.65800000  0.24520000  1
  C  C174  1  0.46780000  0.96240000  0.42130000  1
  C  C175  1  0.46979000  0.59278000  0.21810000  1
  C  C176  1  0.47950000  0.86840000  0.97550000  1
  C  C177  1  0.48580000  0.21280000  0.31790000  1
  C  C178  1  0.49220000  0.90100000  0.42330000  1
  C  C179  1  0.49460000  0.96240000  0.92130000  1
  C  C180  1  0.50540000  0.03760000  0.07870000  1
  C  C181  1  0.50780000  0.09900000  0.57670000  1
  C  C182  1  0.51420000  0.78720000  0.68210000  1
  C  C183  1  0.52050000  0.13160000  0.02450000  1
  C  C184  1  0.53021000  0.40722000  0.78190000  1
  C  C185  1  0.53220000  0.03760000  0.57870000  1
  C  C186  1  0.53420000  0.34200000  0.75480000  1
  C  C187  1  0.54890000  0.83680000  0.65430000  1
  C  C188  1  0.55640000  0.69460000  0.63830000  1
  C  C189  1  0.56028000  0.57776000  0.21990000  1
  C  C190  1  0.56770000  0.92880000  0.97560000  1
  C  C191  1  0.57860000  0.97540000  0.94670000  1
  C  C192  1  0.59070000  0.39180000  0.13260000  1
  C  C193  1  0.59120000  0.09900000  0.07670000  1
  C  C194  1  0.59163000  0.81386000  0.61720000  1
  C  C195  1  0.59580000  0.74180000  0.60970000  1
  C  C196  1  0.60320000  0.02460000  0.55330000  1
  C  C197  1  0.61100000  0.33600000  0.10360000  1
  C  C198  1  0.61110000  0.13160000  0.52450000  1
  C  C199  1  0.61122000  0.37004000  0.64200000  1
  C  C200  1  0.61320000  0.45800000  0.80970000  1
  C  C201  1  0.61930000  0.32960000  0.75600000  1
  C  C202  1  0.63156000  0.86432000  0.58630000  1
  C  C203  1  0.63460000  0.96100000  0.55550000  1
  C  C204  1  0.63890000  0.07120000  0.52440000  1
  C  C205  1  0.64609000  0.50438000  0.19850000  1
  C  C206  1  0.65980000  0.44000000  0.16760000  1
  C  C207  1  0.67360000  0.03900000  0.94450000  1
  C  C208  1  0.68267000  0.42774000  0.67250000  1
  C  C209  1  0.69550000  0.44160000  0.80840000  1
  C  C210  1  0.70694000  0.60968000  0.25490000  1
  C  C211  1  0.71030000  0.32960000  0.25600000  1
  C  C212  1  0.71210000  0.16320000  0.84570000  1
  C  C213  1  0.72500000  0.33600000  0.60360000  1
  C  C214  1  0.72700000  0.21280000  0.81790000  1
  C  C215  1  0.73261000  0.89862000  0.53395000  1
  C  C216  1  0.74507000  0.42774000  0.17250000  1
  C  C217  1  0.74610000  0.44160000  0.30840000  1
  C  C218  1  0.75882000  0.37004000  0.14200000  1
  C  C219  1  0.76110000  0.69720000  0.83230000  1
  C  C220  1  0.76724000  0.13568000  0.91370000  1
  C  C221  1  0.77630000  0.72500000  0.31770000  1
  C  C222  1  0.77777000  0.18614000  0.88280000  1
  C  C223  1  0.78000000  0.64800000  0.79810000  1
  C  C224  1  0.78020000  0.44000000  0.66760000  1
  C  C225  1  0.78529000  0.66158000  0.29060000  1
  C  C226  1  0.80110000  0.39180000  0.63260000  1
  C  C227  1  0.80780000  0.34200000  0.25480000  1
  C  C228  1  0.81190000  0.89000000  0.50700000  1
  C  C229  1  0.83399000  0.10138000  0.96605000  1
  C  C230  1  0.84230000  0.83080000  0.50790000  1
  C  C231  1  0.84480000  0.45800000  0.30970000  1
  C  C232  1  0.84820000  0.77220000  0.35080000  1
  C  C233  1  0.85400000  0.25820000  0.89030000  1
  C  C234  1  0.85571000  0.94002000  0.48010000  1
  C  C235  1  0.85829000  0.50438000  0.69850000  1
  C  C236  1  0.86180000  0.30540000  0.86170000  1
  C  C237  1  0.86800000  0.64800000  0.29810000  1
  C  C238  1  0.87629000  0.66158000  0.79060000  1
  C  C239  1  0.87701000  0.40722000  0.28190000  1
  C  C240  1  0.90274000  0.60968000  0.75490000  1
  C  C241  1  0.91060000  0.82220000  0.98000000  1
  C  C242  1  0.91160000  0.82220000  0.48000000  1
  C  C243  1  0.91569000  0.05998000  0.01990000  1
  C  C244  1  0.92190000  0.11000000  0.99300000  1
  C  C245  1  0.92400000  0.77220000  0.85080000  1
  C  C246  1  0.92510000  0.92780000  0.45400000  1
  C  C247  1  0.93610000  0.69720000  0.33230000  1
  C  C248  1  0.94870000  0.72500000  0.81770000  1
  C  C249  1  0.98252000  0.42224000  0.28010000  1
  C  C250  1  0.98850000  0.83080000  0.00790000  1
  C  C251  1  0.99730000  0.07220000  0.04600000  1
  I  I252  1  0.02704000  0.52482000  0.19199000  1
  I  I253  1  0.11014000  0.76068000  0.43932000  1
  I  I254  1  0.12604000  0.95072000  0.37231000  1
  I  I255  1  0.13782000  0.77486000  0.90992000  1
  I  I256  1  0.17532000  0.04928000  0.12769000  1
  I  I257  1  0.19160000  0.73824000  0.29476000  1
  I  I258  1  0.27613000  0.70134000  0.01102000  1
  I  I259  1  0.34946000  0.23932000  0.06068000  1
  I  I260  1  0.36296000  0.22514000  0.59008000  1
  I  I261  1  0.42521000  0.70134000  0.51102000  1
  I  I262  1  0.45336000  0.26176000  0.20524000  1
  I  I263  1  0.49778000  0.52482000  0.69199000  1
  I  I264  1  0.50222000  0.47518000  0.30801000  1
  I  I265  1  0.54664000  0.73824000  0.79476000  1
  I  I266  1  0.57479000  0.29866000  0.48898000  1
  I  I267  1  0.63704000  0.77486000  0.40992000  1
  I  I268  1  0.65054000  0.76068000  0.93932000  1
  I  I269  1  0.72387000  0.29866000  0.98898000  1
  I  I270  1  0.80840000  0.26176000  0.70524000  1
  I  I271  1  0.82468000  0.95072000  0.87231000  1
  I  I272  1  0.86218000  0.22514000  0.09008000  1
  I  I273  1  0.87396000  0.04928000  0.62769000  1
  I  I274  1  0.88986000  0.23932000  0.56068000  1
  I  I275  1  0.97296000  0.47518000  0.80801000  1
  N  N276  1  0.00252000  0.37124000  0.24955000  1
  N  N277  1  0.04804000  0.48468000  0.30768000  1
  N  N278  1  0.04851000  0.13162000  0.54696000  1
  N  N279  1  0.07266000  0.24192000  0.64150000  1
  N  N280  1  0.08311000  0.13162000  0.04696000  1
  N  N281  1  0.15224000  0.85168000  0.06142000  1
  N  N282  1  0.16926000  0.24192000  0.14150000  1
  N  N283  1  0.16998000  0.45156000  0.26975000  1
  N  N284  1  0.20028000  0.71696000  0.17420000  1
  N  N285  1  0.25169000  0.95238000  0.02843000  1
  N  N286  1  0.28158000  0.45156000  0.76975000  1
  N  N287  1  0.29931000  0.04762000  0.47157000  1
  N  N288  1  0.30056000  0.14832000  0.43858000  1
  N  N289  1  0.30104000  0.62168000  0.21767000  1
  N  N290  1  0.30659000  0.67498000  0.89215000  1
  N  N291  1  0.32064000  0.62168000  0.71767000  1
  N  N292  1  0.32117000  0.91974000  0.08564000  1
  N  N293  1  0.36839000  0.67498000  0.39215000  1
  N  N294  1  0.36872000  0.37124000  0.74955000  1
  N  N295  1  0.40143000  0.08026000  0.41436000  1
  N  N296  1  0.40190000  0.85200000  0.94859000  1
  N  N297  1  0.43664000  0.48468000  0.80768000  1
  N  N298  1  0.45010000  0.85200000  0.44859000  1
  N  N299  1  0.48332000  0.28304000  0.32580000  1
  N  N300  1  0.51668000  0.71696000  0.67420000  1
  N  N301  1  0.54990000  0.14800000  0.55141000  1
  N  N302  1  0.56336000  0.51532000  0.19232000  1
  N  N303  1  0.59810000  0.14800000  0.05141000  1
  N  N304  1  0.59857000  0.91974000  0.58564000  1
  N  N305  1  0.63128000  0.62876000  0.25045000  1
  N  N306  1  0.63161000  0.32502000  0.60785000  1
  N  N307  1  0.67883000  0.08026000  0.91436000  1
  N  N308  1  0.67936000  0.37832000  0.28233000  1
  N  N309  1  0.69341000  0.32502000  0.10785000  1
  N  N310  1  0.69896000  0.37832000  0.78233000  1
  N  N311  1  0.69944000  0.85168000  0.56142000  1
  N  N312  1  0.70069000  0.95238000  0.52843000  1
  N  N313  1  0.71842000  0.54844000  0.23025000  1
  N  N314  1  0.74831000  0.04762000  0.97157000  1
  N  N315  1  0.79972000  0.28304000  0.82580000  1
  N  N316  1  0.83002000  0.54844000  0.73025000  1
  N  N317  1  0.83074000  0.75808000  0.85850000  1
  N  N318  1  0.84776000  0.14832000  0.93858000  1
  N  N319  1  0.91689000  0.86838000  0.95304000  1
  N  N320  1  0.92734000  0.75808000  0.35850000  1
  N  N321  1  0.95149000  0.86838000  0.45304000  1
  N  N322  1  0.95196000  0.51532000  0.69232000  1
  N  N323  1  0.99748000  0.62876000  0.75045000  1
