# generated using pymatgen
data_Zn8Co3H60C126(N3O22)2
_symmetry_space_group_name_H-M   'P 1'
_cell_length_a   29.25754243
_cell_length_b   29.25754243
_cell_length_c   29.25754243
_cell_angle_alpha   109.47122063
_cell_angle_beta   109.47122063
_cell_angle_gamma   109.47122063
_symmetry_Int_Tables_number   1
_chemical_formula_structural   Zn8Co3H60C126(N3O22)2
_chemical_formula_sum   'Zn16 Co6 H120 C252 N12 O88'
_cell_volume   19279.31681032
_cell_formula_units_Z   2
loop_
 _symmetry_equiv_pos_site_id
 _symmetry_equiv_pos_as_xyz
  1  'x, y, z'
loop_
 _atom_site_type_symbol
 _atom_site_label
 _atom_site_symmetry_multiplicity
 _atom_site_fract_x
 _atom_site_fract_y
 _atom_site_fract_z
 _atom_site_occupancy
  C  C0  1  0.41690000  0.91960000  0.33050000  1
  C  C1  1  0.58910000  0.08640000  0.66950000  1
  C  C2  1  0.45070000  0.95090000  0.39240000  1
  C  C3  1  0.55850000  0.05830000  0.60760000  1
  C  C4  1  0.36110000  0.86700000  0.21610000  1
  C  C5  1  0.65090000  0.14500000  0.78390000  1
  C  C6  1  0.39940000  0.15530000  0.49310000  1
  C  C7  1  0.66220000  0.90630000  0.50690000  1
  C  C8  1  0.34300000  0.21710000  0.49610000  1
  C  C9  1  0.72100000  0.84690000  0.50390000  1
  C  C10  1  0.42940000  0.12890000  0.49350000  1
  C  C11  1  0.63540000  0.93590000  0.50650000  1
  C  C12  1  0.31950000  0.24860000  0.49510000  1
  C  C13  1  0.75350000  0.82440000  0.50490000  1
  C  C14  1  0.43760000  0.93820000  0.30060000  1
  C  C15  1  0.63760000  0.13700000  0.69940000  1
  C  C16  1  0.41010000  0.91180000  0.24330000  1
  C  C17  1  0.66850000  0.16680000  0.75670000  1
  C  C18  1  0.35400000  0.85390000  0.12410000  1
  C  C19  1  0.72980000  0.22990000  0.87590000  1
  C  C20  1  0.05830000  0.60760000  0.55850000  1
  C  C21  1  0.04910000  0.49980000  0.44150000  1
  C  C22  1  0.50020000  0.54930000  0.94170000  1
  C  C23  1  0.60760000  0.55850000  0.05830000  1
  C  C24  1  0.33900000  0.88700000  0.11160000  1
  C  C25  1  0.77540000  0.22740000  0.88840000  1
  C  C26  1  0.38730000  0.84170000  0.11360000  1
  C  C27  1  0.72810000  0.27370000  0.88640000  1
  C  C28  1  0.39110000  0.23310000  0.48820000  1
  C  C29  1  0.74490000  0.90290000  0.51180000  1
  C  C30  1  0.34360000  0.29920000  0.49700000  1
  C  C31  1  0.80220000  0.84660000  0.50300000  1
  C  C32  1  0.08640000  0.66950000  0.58910000  1
  C  C33  1  0.08040000  0.49730000  0.41090000  1
  C  C34  1  0.50270000  0.58310000  0.91360000  1
  C  C35  1  0.66950000  0.58910000  0.08640000  1
  C  C36  1  0.41420000  0.86650000  0.08950000  1
  C  C37  1  0.77700000  0.32470000  0.91050000  1
  C  C38  1  0.36430000  0.91130000  0.08400000  1
  C  C39  1  0.82730000  0.28030000  0.91600000  1
  C  C40  1  0.12890000  0.49350000  0.42940000  1
  C  C41  1  0.06410000  0.69950000  0.57060000  1
  C  C42  1  0.13700000  0.69940000  0.63760000  1
  C  C43  1  0.06180000  0.49940000  0.36240000  1
  C  C44  1  0.50060000  0.56240000  0.86300000  1
  C  C45  1  0.69940000  0.63760000  0.13700000  1
  C  C46  1  0.41250000  0.27730000  0.48620000  1
  C  C47  1  0.79110000  0.92630000  0.51380000  1
  C  C48  1  0.50650000  0.63540000  0.93590000  1
  C  C49  1  0.69950000  0.57060000  0.06410000  1
  C  C50  1  0.39030000  0.31350000  0.49140000  1
  C  C51  1  0.82210000  0.89890000  0.50860000  1
  C  C52  1  0.40310000  0.90200000  0.07490000  1
  C  C53  1  0.82710000  0.32820000  0.92510000  1
  C  C54  1  0.15530000  0.49310000  0.39940000  1
  C  C55  1  0.09370000  0.75590000  0.60060000  1
  C  C56  1  0.16680000  0.75670000  0.66850000  1
  C  C57  1  0.08820000  0.49830000  0.33150000  1
  C  C58  1  0.50170000  0.58990000  0.83320000  1
  C  C59  1  0.75670000  0.66850000  0.16680000  1
  C  C60  1  0.50690000  0.66220000  0.90630000  1
  C  C61  1  0.75590000  0.60060000  0.09370000  1
  C  C62  1  0.14500000  0.78390000  0.65090000  1
  C  C63  1  0.13300000  0.49410000  0.34910000  1
  C  C64  1  0.50590000  0.63890000  0.85500000  1
  C  C65  1  0.78390000  0.65090000  0.14500000  1
  C  C66  1  0.41680000  0.36160000  0.48540000  1
  C  C67  1  0.87620000  0.93140000  0.51460000  1
  C  C68  1  0.43330000  0.93050000  0.05440000  1
  C  C69  1  0.87610000  0.37890000  0.94560000  1
  C  C70  1  0.23310000  0.48820000  0.39110000  1
  C  C71  1  0.09710000  0.84200000  0.60890000  1
  C  C72  1  0.22740000  0.88840000  0.77540000  1
  C  C73  1  0.11300000  0.45200000  0.22460000  1
  C  C74  1  0.45440000  0.61270000  0.72630000  1
  C  C75  1  0.88640000  0.72810000  0.27370000  1
  C  C76  1  0.27730000  0.48620000  0.41250000  1
  C  C77  1  0.07370000  0.86480000  0.58750000  1
  C  C78  1  0.51180000  0.74490000  0.90290000  1
  C  C79  1  0.84200000  0.60890000  0.09710000  1
  C  C80  1  0.45230000  0.58580000  0.67530000  1
  C  C81  1  0.91050000  0.77700000  0.32470000  1
  C  C82  1  0.28030000  0.91600000  0.82730000  1
  C  C83  1  0.08870000  0.45300000  0.17270000  1
  C  C84  1  0.21710000  0.49610000  0.34300000  1
  C  C85  1  0.15310000  0.87410000  0.65700000  1
  C  C86  1  0.49990000  0.64600000  0.77010000  1
  C  C87  1  0.87590000  0.72980000  0.22990000  1
  C  C88  1  0.22990000  0.87590000  0.72980000  1
  C  C89  1  0.14610000  0.50010000  0.27020000  1
  C  C90  1  0.50390000  0.72100000  0.84690000  1
  C  C91  1  0.87410000  0.65700000  0.15310000  1
  C  C92  1  0.51380000  0.79110000  0.92630000  1
  C  C93  1  0.86480000  0.58750000  0.07370000  1
  C  C94  1  0.31350000  0.49140000  0.39030000  1
  C  C95  1  0.10110000  0.92320000  0.60970000  1
  C  C96  1  0.49890000  0.59690000  0.67180000  1
  C  C97  1  0.92510000  0.82710000  0.32820000  1
  C  C98  1  0.24860000  0.49510000  0.31950000  1
  C  C99  1  0.17560000  0.92910000  0.68050000  1
  C  C100  1  0.32820000  0.92510000  0.82710000  1
  C  C101  1  0.09800000  0.50110000  0.17290000  1
  C  C102  1  0.36160000  0.48540000  0.41680000  1
  C  C103  1  0.06860000  0.94480000  0.58320000  1
  C  C104  1  0.50860000  0.82210000  0.89890000  1
  C  C105  1  0.92320000  0.60970000  0.10110000  1
  C  C106  1  0.27370000  0.88640000  0.72810000  1
  C  C107  1  0.15830000  0.54560000  0.27190000  1
  C  C108  1  0.50490000  0.75350000  0.82440000  1
  C  C109  1  0.92910000  0.68050000  0.17560000  1
  C  C110  1  0.54800000  0.66100000  0.77260000  1
  C  C111  1  0.88840000  0.77540000  0.22740000  1
  C  C112  1  0.49720000  0.56670000  0.62110000  1
  C  C113  1  0.94560000  0.87610000  0.37890000  1
  C  C114  1  0.37890000  0.94560000  0.87610000  1
  C  C115  1  0.06950000  0.50280000  0.12390000  1
  C  C116  1  0.29920000  0.49700000  0.34360000  1
  C  C117  1  0.15340000  0.95560000  0.65640000  1
  C  C118  1  0.32470000  0.91050000  0.77700000  1
  C  C119  1  0.13350000  0.54770000  0.22300000  1
  C  C120  1  0.50300000  0.80220000  0.84660000  1
  C  C121  1  0.95560000  0.65640000  0.15340000  1
  C  C122  1  0.51460000  0.87620000  0.93140000  1
  C  C123  1  0.94480000  0.58320000  0.06860000  1
  C  C124  1  0.54700000  0.63570000  0.71970000  1
  C  C125  1  0.91600000  0.82730000  0.28030000  1
  C  C126  1  0.45300000  0.17270000  0.08870000  1
  C  C127  1  0.08400000  0.36430000  0.91130000  1
  C  C128  1  0.48540000  0.41680000  0.36160000  1
  C  C129  1  0.05520000  0.12380000  0.63840000  1
  C  C130  1  0.49700000  0.34360000  0.29920000  1
  C  C131  1  0.04440000  0.19780000  0.70080000  1
  C  C132  1  0.67530000  0.45230000  0.58580000  1
  C  C133  1  0.86650000  0.08950000  0.41420000  1
  C  C134  1  0.70080000  0.04440000  0.19780000  1
  C  C135  1  0.84660000  0.50300000  0.80220000  1
  C  C136  1  0.62110000  0.49720000  0.56670000  1
  C  C137  1  0.93050000  0.05440000  0.43330000  1
  C  C138  1  0.50280000  0.12390000  0.06950000  1
  C  C139  1  0.05440000  0.43330000  0.93050000  1
  C  C140  1  0.45200000  0.22460000  0.11300000  1
  C  C141  1  0.11160000  0.33900000  0.88700000  1
  C  C142  1  0.49510000  0.31950000  0.24860000  1
  C  C143  1  0.07090000  0.24650000  0.75140000  1
  C  C144  1  0.72630000  0.45440000  0.61270000  1
  C  C145  1  0.84170000  0.11360000  0.38730000  1
  C  C146  1  0.49140000  0.39030000  0.31350000  1
  C  C147  1  0.07680000  0.17790000  0.68650000  1
  C  C148  1  0.63840000  0.05520000  0.12380000  1
  C  C149  1  0.93140000  0.51460000  0.87620000  1
  C  C150  1  0.67180000  0.49890000  0.59690000  1
  C  C151  1  0.90200000  0.07490000  0.40310000  1
  C  C152  1  0.75140000  0.07090000  0.24650000  1
  C  C153  1  0.82440000  0.50490000  0.75350000  1
  C  C154  1  0.50110000  0.17290000  0.09800000  1
  C  C155  1  0.07490000  0.40310000  0.90200000  1
  C  C156  1  0.68650000  0.07680000  0.17790000  1
  C  C157  1  0.89890000  0.50860000  0.82210000  1
  C  C158  1  0.48620000  0.41250000  0.27730000  1
  C  C159  1  0.13520000  0.20890000  0.72270000  1
  C  C160  1  0.49610000  0.34300000  0.21710000  1
  C  C161  1  0.12590000  0.27900000  0.78290000  1
  C  C162  1  0.77010000  0.49990000  0.64600000  1
  C  C163  1  0.85390000  0.12410000  0.35400000  1
  C  C164  1  0.50010000  0.27020000  0.14610000  1
  C  C165  1  0.12410000  0.35400000  0.85390000  1
  C  C166  1  0.78290000  0.12590000  0.27900000  1
  C  C167  1  0.84690000  0.50390000  0.72100000  1
  C  C168  1  0.71970000  0.54700000  0.63570000  1
  C  C169  1  0.91130000  0.08400000  0.36430000  1
  C  C170  1  0.54770000  0.22300000  0.13350000  1
  C  C171  1  0.08950000  0.41420000  0.86650000  1
  C  C172  1  0.48820000  0.39110000  0.23310000  1
  C  C173  1  0.15800000  0.25510000  0.76690000  1
  C  C174  1  0.72270000  0.13520000  0.20890000  1
  C  C175  1  0.92630000  0.51380000  0.79110000  1
  C  C176  1  0.54560000  0.27190000  0.15830000  1
  C  C177  1  0.11360000  0.38730000  0.84170000  1
  C  C178  1  0.77260000  0.54800000  0.66100000  1
  C  C179  1  0.88700000  0.11160000  0.33900000  1
  C  C180  1  0.76690000  0.15800000  0.25510000  1
  C  C181  1  0.90290000  0.51180000  0.74490000  1
  C  C182  1  0.56670000  0.62110000  0.49720000  1
  C  C183  1  0.12390000  0.06950000  0.50280000  1
  C  C184  1  0.58320000  0.06860000  0.94480000  1
  C  C185  1  0.12380000  0.63840000  0.05520000  1
  C  C186  1  0.49410000  0.34910000  0.13300000  1
  C  C187  1  0.21610000  0.36110000  0.86700000  1
  C  C188  1  0.85500000  0.50590000  0.63890000  1
  C  C189  1  0.86700000  0.21610000  0.36110000  1
  C  C190  1  0.49310000  0.39940000  0.15530000  1
  C  C191  1  0.24410000  0.33780000  0.84470000  1
  C  C192  1  0.49830000  0.33150000  0.08820000  1
  C  C193  1  0.24330000  0.41010000  0.91180000  1
  C  C194  1  0.83320000  0.50170000  0.58990000  1
  C  C195  1  0.91180000  0.24330000  0.41010000  1
  C  C196  1  0.84470000  0.24410000  0.33780000  1
  C  C197  1  0.90630000  0.50690000  0.66220000  1
  C  C198  1  0.59690000  0.67180000  0.49890000  1
  C  C199  1  0.17290000  0.09800000  0.50110000  1
  C  C200  1  0.60970000  0.10110000  0.92320000  1
  C  C201  1  0.17790000  0.68650000  0.07680000  1
  C  C202  1  0.49350000  0.42940000  0.12890000  1
  C  C203  1  0.30050000  0.36460000  0.87110000  1
  C  C204  1  0.58750000  0.07370000  0.86480000  1
  C  C205  1  0.20890000  0.72270000  0.13520000  1
  C  C206  1  0.49940000  0.36240000  0.06180000  1
  C  C207  1  0.30060000  0.43760000  0.93820000  1
  C  C208  1  0.86300000  0.50060000  0.56240000  1
  C  C209  1  0.93820000  0.30060000  0.43760000  1
  C  C210  1  0.87110000  0.30050000  0.36460000  1
  C  C211  1  0.93590000  0.50650000  0.63540000  1
  C  C212  1  0.63570000  0.71970000  0.54700000  1
  C  C213  1  0.17270000  0.08870000  0.45300000  1
  C  C214  1  0.58580000  0.67530000  0.45230000  1
  C  C215  1  0.22300000  0.13350000  0.54770000  1
  C  C216  1  0.49730000  0.41090000  0.08040000  1
  C  C217  1  0.33050000  0.41690000  0.91960000  1
  C  C218  1  0.91360000  0.50270000  0.58310000  1
  C  C219  1  0.91960000  0.33050000  0.41690000  1
  C  C220  1  0.65640000  0.15340000  0.95560000  1
  C  C221  1  0.19780000  0.70080000  0.04440000  1
  C  C222  1  0.60890000  0.09710000  0.84200000  1
  C  C223  1  0.25510000  0.76690000  0.15800000  1
  C  C224  1  0.61270000  0.72630000  0.45440000  1
  C  C225  1  0.27190000  0.15830000  0.54560000  1
  C  C226  1  0.66100000  0.77260000  0.54800000  1
  C  C227  1  0.22460000  0.11300000  0.45200000  1
  C  C228  1  0.49980000  0.44150000  0.04910000  1
  C  C229  1  0.39240000  0.45070000  0.95090000  1
  C  C230  1  0.94170000  0.50020000  0.54930000  1
  C  C231  1  0.95090000  0.39240000  0.45070000  1
  C  C232  1  0.64600000  0.77010000  0.49990000  1
  C  C233  1  0.27020000  0.14610000  0.50010000  1
  C  C234  1  0.58990000  0.83320000  0.50170000  1
  C  C235  1  0.33150000  0.08820000  0.49830000  1
  C  C236  1  0.56240000  0.86300000  0.50060000  1
  C  C237  1  0.36240000  0.06180000  0.49940000  1
  C  C238  1  0.68050000  0.17560000  0.92910000  1
  C  C239  1  0.24650000  0.75140000  0.07090000  1
  C  C240  1  0.57060000  0.06410000  0.69950000  1
  C  C241  1  0.36460000  0.87110000  0.30050000  1
  C  C242  1  0.65700000  0.15310000  0.87410000  1
  C  C243  1  0.27900000  0.78290000  0.12590000  1
  C  C244  1  0.60060000  0.09370000  0.75590000  1
  C  C245  1  0.33780000  0.84470000  0.24410000  1
  C  C246  1  0.63890000  0.85500000  0.50590000  1
  C  C247  1  0.34910000  0.13300000  0.49410000  1
  C  C248  1  0.54930000  0.94170000  0.50020000  1
  C  C249  1  0.44150000  0.04910000  0.49980000  1
  C  C250  1  0.58310000  0.91360000  0.50270000  1
  C  C251  1  0.41090000  0.08040000  0.49730000  1
  Co  Co252  1  0.04356000  0.50000000  0.54356000  1
  Co  Co253  1  0.50000000  0.54356000  0.04356000  1
  Co  Co254  1  0.50000000  0.45644000  0.95644000  1
  Co  Co255  1  0.95644000  0.50000000  0.45644000  1
  Co  Co256  1  0.54356000  0.04356000  0.50000000  1
  Co  Co257  1  0.45644000  0.95644000  0.50000000  1
  H  H258  1  0.28480000  0.23600000  0.49300000  1
  H  H259  1  0.74300000  0.79180000  0.50700000  1
  H  H260  1  0.31360000  0.89500000  0.12000000  1
  H  H261  1  0.77500000  0.19360000  0.88000000  1
  H  H262  1  0.39460000  0.81590000  0.12170000  1
  H  H263  1  0.69420000  0.27290000  0.87830000  1
  H  H264  1  0.46180000  0.14280000  0.49140000  1
  H  H265  1  0.65140000  0.97040000  0.50860000  1
  H  H266  1  0.47220000  0.97060000  0.32040000  1
  H  H267  1  0.65020000  0.15180000  0.67960000  1
  H  H268  1  0.42590000  0.92530000  0.22440000  1
  H  H269  1  0.70090000  0.20150000  0.77560000  1
  H  H270  1  0.32860000  0.32280000  0.50200000  1
  H  H271  1  0.82080000  0.82660000  0.49800000  1
  H  H272  1  0.14280000  0.49140000  0.46180000  1
  H  H273  1  0.02960000  0.68100000  0.53820000  1
  H  H274  1  0.49840000  0.52780000  0.84820000  1
  H  H275  1  0.67960000  0.65020000  0.15180000  1
  H  H276  1  0.15180000  0.67960000  0.65020000  1
  H  H277  1  0.02940000  0.50160000  0.34980000  1
  H  H278  1  0.50860000  0.65140000  0.97040000  1
  H  H279  1  0.68100000  0.53820000  0.02960000  1
  H  H280  1  0.35320000  0.93360000  0.07240000  1
  H  H281  1  0.86120000  0.28080000  0.92760000  1
  H  H282  1  0.44030000  0.85800000  0.08350000  1
  H  H283  1  0.77450000  0.35680000  0.91650000  1
  H  H284  1  0.44350000  0.28620000  0.48130000  1
  H  H285  1  0.80490000  0.96220000  0.51870000  1
  H  H286  1  0.49940000  0.57410000  0.79850000  1
  H  H287  1  0.77560000  0.70090000  0.20150000  1
  H  H288  1  0.20150000  0.77560000  0.70090000  1
  H  H289  1  0.07470000  0.50060000  0.29910000  1
  H  H290  1  0.19360000  0.88000000  0.77500000  1
  H  H291  1  0.10500000  0.41860000  0.22500000  1
  H  H292  1  0.42130000  0.60540000  0.72710000  1
  H  H293  1  0.87830000  0.69420000  0.27290000  1
  H  H294  1  0.28620000  0.48130000  0.44350000  1
  H  H295  1  0.03780000  0.84270000  0.55650000  1
  H  H296  1  0.41770000  0.55970000  0.64320000  1
  H  H297  1  0.91650000  0.77450000  0.35680000  1
  H  H298  1  0.28080000  0.92760000  0.86120000  1
  H  H299  1  0.06640000  0.41960000  0.13880000  1
  H  H300  1  0.51870000  0.80490000  0.96220000  1
  H  H301  1  0.84270000  0.55650000  0.03780000  1
  H  H302  1  0.23600000  0.49300000  0.28480000  1
  H  H303  1  0.20820000  0.95120000  0.71520000  1
  H  H304  1  0.27290000  0.87830000  0.69420000  1
  H  H305  1  0.18410000  0.57870000  0.30580000  1
  H  H306  1  0.50700000  0.74300000  0.79180000  1
  H  H307  1  0.95120000  0.71520000  0.20820000  1
  H  H308  1  0.58140000  0.68640000  0.80640000  1
  H  H309  1  0.88000000  0.77500000  0.19360000  1
  H  H310  1  0.41960000  0.13880000  0.06640000  1
  H  H311  1  0.07240000  0.35320000  0.93360000  1
  H  H312  1  0.49800000  0.82080000  0.82660000  1
  H  H313  1  0.99420000  0.67140000  0.17340000  1
  H  H314  1  0.32280000  0.50200000  0.32860000  1
  H  H315  1  0.17340000  0.99420000  0.67140000  1
  H  H316  1  0.35680000  0.91650000  0.77450000  1
  H  H317  1  0.14200000  0.58230000  0.22550000  1
  H  H318  1  0.64320000  0.41770000  0.55970000  1
  H  H319  1  0.85800000  0.08350000  0.44030000  1
  H  H320  1  0.67720000  0.00580000  0.17920000  1
  H  H321  1  0.82660000  0.49800000  0.82080000  1
  H  H322  1  0.50200000  0.32860000  0.32280000  1
  H  H323  1  0.00580000  0.17920000  0.67720000  1
  H  H324  1  0.58040000  0.64680000  0.71920000  1
  H  H325  1  0.92760000  0.86120000  0.28080000  1
  H  H326  1  0.41860000  0.22500000  0.10500000  1
  H  H327  1  0.12000000  0.31360000  0.89500000  1
  H  H328  1  0.49300000  0.28480000  0.23600000  1
  H  H329  1  0.04880000  0.25700000  0.76400000  1
  H  H330  1  0.72710000  0.42130000  0.60540000  1
  H  H331  1  0.81590000  0.12170000  0.39460000  1
  H  H332  1  0.76400000  0.04880000  0.25700000  1
  H  H333  1  0.79180000  0.50700000  0.74300000  1
  H  H334  1  0.48130000  0.44350000  0.28620000  1
  H  H335  1  0.15730000  0.19510000  0.71380000  1
  H  H336  1  0.71920000  0.58040000  0.64680000  1
  H  H337  1  0.93360000  0.07240000  0.35320000  1
  H  H338  1  0.58230000  0.22550000  0.14200000  1
  H  H339  1  0.08350000  0.44030000  0.85800000  1
  H  H340  1  0.71380000  0.15730000  0.19510000  1
  H  H341  1  0.96220000  0.51870000  0.80490000  1
  H  H342  1  0.57870000  0.30580000  0.18410000  1
  H  H343  1  0.12170000  0.39460000  0.81590000  1
  H  H344  1  0.80640000  0.58140000  0.68640000  1
  H  H345  1  0.89500000  0.12000000  0.31360000  1
  H  H346  1  0.79850000  0.49940000  0.57410000  1
  H  H347  1  0.92530000  0.22440000  0.42590000  1
  H  H348  1  0.50060000  0.29910000  0.07470000  1
  H  H349  1  0.22440000  0.42590000  0.92530000  1
  H  H350  1  0.55650000  0.03780000  0.84270000  1
  H  H351  1  0.19510000  0.71380000  0.15730000  1
  H  H352  1  0.55970000  0.64320000  0.41770000  1
  H  H353  1  0.22550000  0.14200000  0.58230000  1
  H  H354  1  0.64680000  0.71920000  0.58040000  1
  H  H355  1  0.13880000  0.06640000  0.41960000  1
  H  H356  1  0.49140000  0.46180000  0.14280000  1
  H  H357  1  0.31900000  0.34860000  0.85720000  1
  H  H358  1  0.84820000  0.49840000  0.52780000  1
  H  H359  1  0.97060000  0.32040000  0.47220000  1
  H  H360  1  0.50160000  0.34980000  0.02940000  1
  H  H361  1  0.32040000  0.47220000  0.97060000  1
  H  H362  1  0.85720000  0.31900000  0.34860000  1
  H  H363  1  0.97040000  0.50860000  0.65140000  1
  H  H364  1  0.67140000  0.17340000  0.99420000  1
  H  H365  1  0.17920000  0.67720000  0.00580000  1
  H  H366  1  0.57410000  0.79850000  0.49940000  1
  H  H367  1  0.29910000  0.07470000  0.50060000  1
  H  H368  1  0.52780000  0.84820000  0.49840000  1
  H  H369  1  0.34980000  0.02940000  0.50160000  1
  H  H370  1  0.53820000  0.02960000  0.68100000  1
  H  H371  1  0.34860000  0.85720000  0.31900000  1
  H  H372  1  0.60540000  0.72710000  0.42130000  1
  H  H373  1  0.30580000  0.18410000  0.57870000  1
  H  H374  1  0.68640000  0.80640000  0.58140000  1
  H  H375  1  0.22500000  0.10500000  0.41860000  1
  H  H376  1  0.71520000  0.20820000  0.95120000  1
  H  H377  1  0.25700000  0.76400000  0.04880000  1
  N  N378  1  0.32890000  0.83460000  0.15430000  1
  N  N379  1  0.68030000  0.17460000  0.84570000  1
  N  N380  1  0.17460000  0.84570000  0.68030000  1
  N  N381  1  0.16540000  0.49430000  0.31970000  1
  N  N382  1  0.50570000  0.67110000  0.82540000  1
  N  N383  1  0.84570000  0.68030000  0.17460000  1
  N  N384  1  0.49430000  0.31970000  0.16540000  1
  N  N385  1  0.15430000  0.32890000  0.83460000  1
  N  N386  1  0.82540000  0.50570000  0.67110000  1
  N  N387  1  0.83460000  0.15430000  0.32890000  1
  N  N388  1  0.67110000  0.82540000  0.50570000  1
  N  N389  1  0.31970000  0.16540000  0.49430000  1
  O  O390  1  0.48840000  0.07230000  0.49750000  1
  O  O391  1  0.57480000  0.99090000  0.50250000  1
  O  O392  1  0.49630000  0.99420000  0.41810000  1
  O  O393  1  0.57610000  0.07820000  0.58190000  1
  O  O394  1  0.49790000  0.50370000  0.92180000  1
  O  O395  1  0.58190000  0.57610000  0.07820000  1
  O  O396  1  0.07230000  0.49750000  0.48840000  1
  O  O397  1  0.00910000  0.58390000  0.51160000  1
  O  O398  1  0.07820000  0.58190000  0.57610000  1
  O  O399  1  0.00580000  0.50210000  0.42390000  1
  O  O400  1  0.50250000  0.57480000  0.99090000  1
  O  O401  1  0.58390000  0.51160000  0.00910000  1
  O  O402  1  0.41860000  0.20010000  0.48610000  1
  O  O403  1  0.71400000  0.93250000  0.51390000  1
  O  O404  1  0.20010000  0.48610000  0.41860000  1
  O  O405  1  0.06750000  0.78150000  0.58140000  1
  O  O406  1  0.51390000  0.71400000  0.93250000  1
  O  O407  1  0.78150000  0.58140000  0.06750000  1
  O  O408  1  0.40430000  0.40120000  0.50390000  1
  O  O409  1  0.89730000  0.90040000  0.49610000  1
  O  O410  1  0.41520000  0.95870000  0.03450000  1
  O  O411  1  0.92420000  0.38070000  0.96550000  1
  O  O412  1  0.47230000  0.92560000  0.05250000  1
  O  O413  1  0.87310000  0.41980000  0.94750000  1
  O  O414  1  0.46110000  0.37410000  0.48320000  1
  O  O415  1  0.89090000  0.97790000  0.51680000  1
  O  O416  1  0.37410000  0.48320000  0.46110000  1
  O  O417  1  0.02210000  0.91300000  0.53890000  1
  O  O418  1  0.45330000  0.52770000  0.58020000  1
  O  O419  1  0.94750000  0.87310000  0.41980000  1
  O  O420  1  0.38070000  0.96550000  0.92420000  1
  O  O421  1  0.04130000  0.45650000  0.07580000  1
  O  O422  1  0.51680000  0.89090000  0.97790000  1
  O  O423  1  0.91300000  0.53890000  0.02210000  1
  O  O424  1  0.45650000  0.07580000  0.04130000  1
  O  O425  1  0.03450000  0.41520000  0.95870000  1
  O  O426  1  0.49140000  0.49140000  0.49140000  1
  O  O427  1  0.00000000  1.00000000  0.50860000  1
  O  O428  1  0.49610000  0.89730000  0.90040000  1
  O  O429  1  0.99690000  0.59570000  0.09960000  1
  O  O430  1  0.41980000  0.94750000  0.87310000  1
  O  O431  1  0.07440000  0.54670000  0.12690000  1
  O  O432  1  0.59880000  0.00310000  0.10270000  1
  O  O433  1  0.90040000  0.49610000  0.89730000  1
  O  O434  1  0.40120000  0.50390000  0.40430000  1
  O  O435  1  0.09960000  0.99690000  0.59570000  1
  O  O436  1  0.58020000  0.45330000  0.52770000  1
  O  O437  1  0.92560000  0.05250000  0.47230000  1
  O  O438  1  0.50390000  0.40430000  0.40120000  1
  O  O439  1  0.00310000  0.10270000  0.59880000  1
  O  O440  1  0.50860000  0.00000000  0.00000000  1
  O  O441  1  1.00000000  0.50860000  0.00000000  1
  O  O442  1  0.54350000  0.58480000  0.61930000  1
  O  O443  1  0.96550000  0.92420000  0.38070000  1
  O  O444  1  0.48320000  0.46110000  0.37410000  1
  O  O445  1  0.08700000  0.10910000  0.62590000  1
  O  O446  1  0.61930000  0.54350000  0.58480000  1
  O  O447  1  0.95870000  0.03450000  0.41520000  1
  O  O448  1  0.54670000  0.12690000  0.07440000  1
  O  O449  1  0.05250000  0.47230000  0.92560000  1
  O  O450  1  0.62590000  0.08700000  0.10910000  1
  O  O451  1  0.97790000  0.51680000  0.89090000  1
  O  O452  1  0.53890000  0.02210000  0.91300000  1
  O  O453  1  0.10910000  0.62590000  0.08700000  1
  O  O454  1  0.52770000  0.58020000  0.45330000  1
  O  O455  1  0.12690000  0.07440000  0.54670000  1
  O  O456  1  0.58480000  0.61930000  0.54350000  1
  O  O457  1  0.07580000  0.04130000  0.45650000  1
  O  O458  1  0.59570000  0.09960000  0.99690000  1
  O  O459  1  0.10270000  0.59880000  0.00310000  1
  O  O460  1  0.48610000  0.41860000  0.20010000  1
  O  O461  1  0.21850000  0.28600000  0.79990000  1
  O  O462  1  0.79990000  0.21850000  0.28600000  1
  O  O463  1  0.93250000  0.51390000  0.71400000  1
  O  O464  1  0.58140000  0.06750000  0.78150000  1
  O  O465  1  0.28600000  0.79990000  0.21850000  1
  O  O466  1  0.49750000  0.48840000  0.07230000  1
  O  O467  1  0.41610000  0.42520000  0.92770000  1
  O  O468  1  0.92180000  0.49790000  0.50370000  1
  O  O469  1  0.99420000  0.41810000  0.49630000  1
  O  O470  1  0.92770000  0.41610000  0.42520000  1
  O  O471  1  0.99090000  0.50250000  0.57480000  1
  O  O472  1  0.50210000  0.42390000  0.00580000  1
  O  O473  1  0.41810000  0.49630000  0.99420000  1
  O  O474  1  0.50370000  0.92180000  0.49790000  1
  O  O475  1  0.42390000  0.00580000  0.50210000  1
  O  O476  1  0.51160000  0.00910000  0.58390000  1
  O  O477  1  0.42520000  0.92770000  0.41610000  1
  Zn  Zn478  1  0.42866000  0.47176000  0.50406000  1
  Zn  Zn479  1  0.96770000  0.92460000  0.49594000  1
  Zn  Zn480  1  0.44278000  0.00000000  0.00000000  1
  Zn  Zn481  1  1.00000000  0.44278000  1.00000000  1
  Zn  Zn482  1  0.52824000  0.95690000  0.03230000  1
  Zn  Zn483  1  0.92460000  0.49594000  0.96770000  1
  Zn  Zn484  1  0.50406000  0.42866000  0.47176000  1
  Zn  Zn485  1  0.95690000  0.03230000  0.52824000  1
  Zn  Zn486  1  0.49594000  0.96770000  0.92460000  1
  Zn  Zn487  1  0.04310000  0.57134000  0.07540000  1
  Zn  Zn488  1  0.47176000  0.50406000  0.42866000  1
  Zn  Zn489  1  0.07540000  0.04310000  0.57134000  1
  Zn  Zn490  1  0.55722000  0.55722000  0.55722000  1
  Zn  Zn491  1  0.00000000  1.00000000  0.44278000  1
  Zn  Zn492  1  0.57134000  0.07540000  0.04310000  1
  Zn  Zn493  1  0.03230000  0.52824000  0.95690000  1
