# generated using pymatgen
data_MgH4(C4O3)2
_symmetry_space_group_name_H-M   'P 1'
_cell_length_a   9.58560000
_cell_length_b   10.02630000
_cell_length_c   10.02630000
_cell_angle_alpha   72.85600000
_cell_angle_beta   70.66700000
_cell_angle_gamma   70.66710000
_symmetry_Int_Tables_number   1
_chemical_formula_structural   MgH4(C4O3)2
_chemical_formula_sum   'Mg2 H8 C16 O12'
_cell_volume   839.23860819
_cell_formula_units_Z   2
loop_
 _symmetry_equiv_pos_site_id
 _symmetry_equiv_pos_as_xyz
  1  'x, y, z'
loop_
 _atom_site_type_symbol
 _atom_site_label
 _atom_site_symmetry_multiplicity
 _atom_site_fract_x
 _atom_site_fract_y
 _atom_site_fract_z
 _atom_site_occupancy
  Mg  Mg0  1  0.00000000  0.00000000  0.00000000  1
  Mg  Mg1  1  0.50000000  0.00000000  1.00000000  1
  H  H2  1  0.86520000  0.32960000  0.13340000  1
  H  H3  1  0.84740000  0.89160000  0.33880000  1
  H  H4  1  0.65260000  0.66120000  0.10840000  1
  H  H5  1  0.63480000  0.86660000  0.67040000  1
  H  H6  1  0.36520000  0.13340000  0.32960000  1
  H  H7  1  0.34740000  0.33880000  0.89160000  1
  H  H8  1  0.15260000  0.10840000  0.66120000  1
  H  H9  1  0.13480000  0.67040000  0.86660000  1
  C  C10  1  0.92250000  0.64670000  0.97770000  1
  C  C11  1  0.91930000  0.39830000  0.08030000  1
  C  C12  1  0.84280000  0.80420000  0.95160000  1
  C  C13  1  0.84280000  0.54200000  0.06060000  1
  C  C14  1  0.65720000  0.93940000  0.45800000  1
  C  C15  1  0.65720000  0.04840000  0.19580000  1
  C  C16  1  0.58070000  0.91970000  0.60170000  1
  C  C17  1  0.57750000  0.02230000  0.35330000  1
  C  C18  1  0.42250000  0.97770000  0.64670000  1
  C  C19  1  0.41930000  0.08030000  0.39830000  1
  C  C20  1  0.34280000  0.95160000  0.80420000  1
  C  C21  1  0.34280000  0.06060000  0.54200000  1
  C  C22  1  0.15720000  0.45800000  0.93940000  1
  C  C23  1  0.15720000  0.19580000  0.04840000  1
  C  C24  1  0.08070000  0.60170000  0.91970000  1
  C  C25  1  0.07750000  0.35330000  0.02230000  1
  O  O26  1  0.91980000  0.89500000  0.90260000  1
  O  O27  1  0.81100000  0.87410000  0.42650000  1
  O  O28  1  0.80320000  0.02000000  0.16420000  1
  O  O29  1  0.69680000  0.83580000  0.98000000  1
  O  O30  1  0.68900000  0.57350000  0.12590000  1
  O  O31  1  0.58020000  0.09740000  0.10500000  1
  O  O32  1  0.41980000  0.90260000  0.89500000  1
  O  O33  1  0.31100000  0.42650000  0.87410000  1
  O  O34  1  0.30320000  0.16420000  0.02000000  1
  O  O35  1  0.19680000  0.98000000  0.83580000  1
  O  O36  1  0.18900000  0.12590000  0.57350000  1
  O  O37  1  0.08020000  0.10500000  0.09740000  1
