# generated using pymatgen
data_CeH27(C11O2)3
_symmetry_space_group_name_H-M   'P 1'
_cell_length_a   9.84010000
_cell_length_b   10.05170000
_cell_length_c   18.06420000
_cell_angle_alpha   90.22100000
_cell_angle_beta   93.85700000
_cell_angle_gamma   113.89100000
_symmetry_Int_Tables_number   1
_chemical_formula_structural   CeH27(C11O2)3
_chemical_formula_sum   'Ce2 H54 C66 O12'
_cell_volume   1628.98669540
_cell_formula_units_Z   2
loop_
 _symmetry_equiv_pos_site_id
 _symmetry_equiv_pos_as_xyz
  1  'x, y, z'
loop_
 _atom_site_type_symbol
 _atom_site_label
 _atom_site_symmetry_multiplicity
 _atom_site_fract_x
 _atom_site_fract_y
 _atom_site_fract_z
 _atom_site_occupancy
  Ce  Ce0  1  0.49269000  0.72342000  0.50362000  1
  Ce  Ce1  1  0.50731000  0.27658000  0.49638000  1
  H  H2  1  0.00650000  0.45110000  0.76440000  1
  H  H3  1  0.05190000  0.96990000  0.89500000  1
  H  H4  1  0.06320000  0.08480000  0.83470000  1
  H  H5  1  0.07610000  0.56100000  0.89190000  1
  H  H6  1  0.08730000  0.53960000  0.09200000  1
  H  H7  1  0.08840000  0.54120000  0.35410000  1
  H  H8  1  0.09340000  0.02400000  0.14290000  1
  H  H9  1  0.17690000  0.28910000  0.16290000  1
  H  H10  1  0.22640000  0.75800000  0.88850000  1
  H  H11  1  0.23720000  0.76940000  0.14630000  1
  H  H12  1  0.25180000  0.48150000  0.86360000  1
  H  H13  1  0.25310000  0.08980000  0.05900000  1
  H  H14  1  0.26660000  0.27450000  0.28260000  1
  H  H15  1  0.28040000  0.54630000  0.06940000  1
  H  H16  1  0.29300000  0.16400000  0.92700000  1
  H  H17  1  0.29760000  0.57140000  0.74660000  1
  H  H18  1  0.30380000  0.75420000  0.26940000  1
  H  H19  1  0.31040000  0.90780000  0.93180000  1
  H  H20  1  0.31470000  0.76570000  0.96510000  1
  H  H21  1  0.34280000  0.00310000  0.03220000  1
  H  H22  1  0.34770000  0.52300000  0.99670000  1
  H  H23  1  0.36050000  0.43960000  0.06820000  1
  H  H24  1  0.37700000  0.31600000  0.96000000  1
  H  H25  1  0.40760000  0.18370000  0.81620000  1
  H  H26  1  0.41970000  0.20210000  0.16670000  1
  H  H27  1  0.44740000  0.26900000  0.69820000  1
  H  H28  1  0.48030000  0.18900000  0.29180000  1
  H  H29  1  0.51970000  0.81100000  0.70820000  1
  H  H30  1  0.55260000  0.73100000  0.30180000  1
  H  H31  1  0.58030000  0.79790000  0.83330000  1
  H  H32  1  0.59240000  0.81630000  0.18380000  1
  H  H33  1  0.62300000  0.68400000  0.04000000  1
  H  H34  1  0.63950000  0.56040000  0.93180000  1
  H  H35  1  0.65230000  0.47700000  0.00330000  1
  H  H36  1  0.65720000  0.99690000  0.96780000  1
  H  H37  1  0.68530000  0.23430000  0.03490000  1
  H  H38  1  0.68960000  0.09220000  0.06820000  1
  H  H39  1  0.69620000  0.24580000  0.73060000  1
  H  H40  1  0.70240000  0.42860000  0.25340000  1
  H  H41  1  0.70700000  0.83600000  0.07300000  1
  H  H42  1  0.71960000  0.45370000  0.93060000  1
  H  H43  1  0.73340000  0.72550000  0.71740000  1
  H  H44  1  0.74690000  0.91020000  0.94100000  1
  H  H45  1  0.74820000  0.51850000  0.13640000  1
  H  H46  1  0.76280000  0.23060000  0.85370000  1
  H  H47  1  0.77360000  0.24200000  0.11150000  1
  H  H48  1  0.82310000  0.71090000  0.83710000  1
  H  H49  1  0.90660000  0.97600000  0.85710000  1
  H  H50  1  0.91160000  0.45880000  0.64590000  1
  H  H51  1  0.91270000  0.46040000  0.90800000  1
  H  H52  1  0.92390000  0.43900000  0.10810000  1
  H  H53  1  0.93680000  0.91520000  0.16530000  1
  H  H54  1  0.94810000  0.03010000  0.10500000  1
  H  H55  1  0.99350000  0.54890000  0.23560000  1
  C  C56  1  0.00810000  0.03300000  0.87490000  1
  C  C57  1  0.01220000  0.14020000  0.93470000  1
  C  C58  1  0.02010000  0.33540000  0.04700000  1
  C  C59  1  0.02370000  0.44280000  0.10670000  1
  C  C60  1  0.05070000  0.49540000  0.24440000  1
  C  C61  1  0.07750000  0.42280000  0.18540000  1
  C  C62  1  0.10680000  0.49020000  0.31580000  1
  C  C63  1  0.11510000  0.78040000  0.97660000  1
  C  C64  1  0.11980000  0.87500000  0.03460000  1
  C  C65  1  0.14740000  0.25190000  0.95980000  1
  C  C66  1  0.15110000  0.35210000  0.01500000  1
  C  C67  1  0.15880000  0.34020000  0.20120000  1
  C  C68  1  0.19040000  0.40950000  0.33100000  1
  C  C69  1  0.21390000  0.33210000  0.27320000  1
  C  C70  1  0.25450000  0.80530000  0.93680000  1
  C  C71  1  0.25850000  0.40860000  0.40780000  1
  C  C72  1  0.26500000  0.99900000  0.06360000  1
  C  C73  1  0.28530000  0.85430000  0.17540000  1
  C  C74  1  0.29040000  0.43750000  0.83040000  1
  C  C75  1  0.29080000  0.25940000  0.92900000  1
  C  C76  1  0.29850000  0.47670000  0.03960000  1
  C  C77  1  0.31620000  0.98750000  0.14380000  1
  C  C78  1  0.31760000  0.49140000  0.75990000  1
  C  C79  1  0.31980000  0.31950000  0.85220000  1
  C  C80  1  0.32470000  0.84500000  0.24950000  1
  C  C81  1  0.37390000  0.42760000  0.70930000  1
  C  C82  1  0.38230000  0.26000000  0.80200000  1
  C  C83  1  0.39280000  0.11150000  0.18770000  1
  C  C84  1  0.39480000  0.96920000  0.29410000  1
  C  C85  1  0.39990000  0.48390000  0.63270000  1
  C  C86  1  0.40750000  0.31200000  0.73120000  1
  C  C87  1  0.42420000  0.95650000  0.37610000  1
  C  C88  1  0.43090000  0.10410000  0.26280000  1
  C  C89  1  0.56910000  0.89590000  0.73720000  1
  C  C90  1  0.57580000  0.04350000  0.62390000  1
  C  C91  1  0.59250000  0.68800000  0.26880000  1
  C  C92  1  0.60010000  0.51610000  0.36730000  1
  C  C93  1  0.60520000  0.03080000  0.70590000  1
  C  C94  1  0.60720000  0.88850000  0.81230000  1
  C  C95  1  0.61770000  0.74000000  0.19800000  1
  C  C96  1  0.62610000  0.57240000  0.29070000  1
  C  C97  1  0.67530000  0.15500000  0.75050000  1
  C  C98  1  0.68020000  0.68050000  0.14780000  1
  C  C99  1  0.68240000  0.50860000  0.24010000  1
  C  C100  1  0.68380000  0.01250000  0.85620000  1
  C  C101  1  0.70150000  0.52330000  0.96040000  1
  C  C102  1  0.70920000  0.74060000  0.07100000  1
  C  C103  1  0.70960000  0.56250000  0.16960000  1
  C  C104  1  0.71470000  0.14570000  0.82460000  1
  C  C105  1  0.73500000  0.00100000  0.93640000  1
  C  C106  1  0.74150000  0.59140000  0.59220000  1
  C  C107  1  0.74550000  0.19470000  0.06320000  1
  C  C108  1  0.78610000  0.66790000  0.72680000  1
  C  C109  1  0.80960000  0.59050000  0.66900000  1
  C  C110  1  0.84120000  0.65980000  0.79880000  1
  C  C111  1  0.84890000  0.64790000  0.98500000  1
  C  C112  1  0.85260000  0.74810000  0.04020000  1
  C  C113  1  0.88020000  0.12500000  0.96540000  1
  C  C114  1  0.88490000  0.21960000  0.02340000  1
  C  C115  1  0.89320000  0.50980000  0.68420000  1
  C  C116  1  0.92250000  0.57720000  0.81460000  1
  C  C117  1  0.94930000  0.50460000  0.75560000  1
  C  C118  1  0.97630000  0.55720000  0.89330000  1
  C  C119  1  0.97990000  0.66460000  0.95300000  1
  C  C120  1  0.98780000  0.85980000  0.06530000  1
  C  C121  1  0.99190000  0.96700000  0.12510000  1
  O  O122  1  0.26790000  0.50900000  0.45344000  1
  O  O123  1  0.30240000  0.30950000  0.42133000  1
  O  O124  1  0.38480000  0.59930000  0.61815000  1
  O  O125  1  0.42630000  0.83820000  0.39687000  1
  O  O126  1  0.43640000  0.41250000  0.58596000  1
  O  O127  1  0.44190000  0.06090000  0.41787000  1
  O  O128  1  0.55810000  0.93910000  0.58213000  1
  O  O129  1  0.56360000  0.58750000  0.41404000  1
  O  O130  1  0.57370000  0.16180000  0.60313000  1
  O  O131  1  0.61520000  0.40070000  0.38185000  1
  O  O132  1  0.69760000  0.69050000  0.57867000  1
  O  O133  1  0.73210000  0.49100000  0.54656000  1
