# generated using pymatgen
data_FeH3(CO2)3
_symmetry_space_group_name_H-M   'P 1'
_cell_length_a   8.41560000
_cell_length_b   8.94740000
_cell_length_c   11.85040000
_cell_angle_alpha   90.00000000
_cell_angle_beta   90.00000000
_cell_angle_gamma   90.00000000
_symmetry_Int_Tables_number   1
_chemical_formula_structural   FeH3(CO2)3
_chemical_formula_sum   'Fe4 H12 C12 O24'
_cell_volume   892.30833146
_cell_formula_units_Z   4
loop_
 _symmetry_equiv_pos_site_id
 _symmetry_equiv_pos_as_xyz
  1  'x, y, z'
loop_
 _atom_site_type_symbol
 _atom_site_label
 _atom_site_symmetry_multiplicity
 _atom_site_fract_x
 _atom_site_fract_y
 _atom_site_fract_z
 _atom_site_occupancy
  Fe  Fe0  1  0.75243000  0.75000000  0.25000000  1
  Fe  Fe1  1  0.74757000  0.75000000  0.75000000  1
  Fe  Fe2  1  0.25243000  0.25000000  0.25000000  1
  Fe  Fe3  1  0.24757000  0.25000000  0.75000000  1
  H  H4  1  0.91690000  0.06450000  0.77570000  1
  H  H5  1  0.91690000  0.43550000  0.72430000  1
  H  H6  1  0.75000000  0.70260000  0.00000000  1
  H  H7  1  0.75000000  0.79740000  0.50000000  1
  H  H8  1  0.58310000  0.43550000  0.27570000  1
  H  H9  1  0.58310000  0.06450000  0.22430000  1
  H  H10  1  0.41690000  0.93550000  0.77570000  1
  H  H11  1  0.41690000  0.56450000  0.72430000  1
  H  H12  1  0.25000000  0.29740000  0.00000000  1
  H  H13  1  0.25000000  0.20260000  0.50000000  1
  H  H14  1  0.08310000  0.56450000  0.27570000  1
  H  H15  1  0.08310000  0.93550000  0.22430000  1
  C  C16  1  0.97830000  0.48310000  0.77879000  1
  C  C17  1  0.97830000  0.01690000  0.72121000  1
  C  C18  1  0.75000000  0.80650000  0.00000000  1
  C  C19  1  0.75000000  0.69350000  0.50000000  1
  C  C20  1  0.52170000  0.01690000  0.27879000  1
  C  C21  1  0.52170000  0.48310000  0.22121000  1
  C  C22  1  0.47830000  0.51690000  0.77879000  1
  C  C23  1  0.47830000  0.98310000  0.72121000  1
  C  C24  1  0.25000000  0.19350000  0.00000000  1
  C  C25  1  0.25000000  0.30650000  0.50000000  1
  C  C26  1  0.02170000  0.98310000  0.27879000  1
  C  C27  1  0.02170000  0.51690000  0.22121000  1
  O  O28  1  0.93800000  0.61162000  0.80701000  1
  O  O29  1  0.93800000  0.88838000  0.69299000  1
  O  O30  1  0.90664000  0.91311000  0.31724000  1
  O  O31  1  0.90664000  0.58689000  0.18276000  1
  O  O32  1  0.75631000  0.63133000  0.40623000  1
  O  O33  1  0.75631000  0.86867000  0.09377000  1
  O  O34  1  0.74369000  0.86867000  0.90623000  1
  O  O35  1  0.74369000  0.63133000  0.59377000  1
  O  O36  1  0.59336000  0.58689000  0.81724000  1
  O  O37  1  0.59336000  0.91311000  0.68276000  1
  O  O38  1  0.56200000  0.88838000  0.30701000  1
  O  O39  1  0.56200000  0.61162000  0.19299000  1
  O  O40  1  0.43800000  0.38838000  0.80701000  1
  O  O41  1  0.43800000  0.11162000  0.69299000  1
  O  O42  1  0.40664000  0.08689000  0.31724000  1
  O  O43  1  0.40664000  0.41311000  0.18276000  1
  O  O44  1  0.25631000  0.36867000  0.40623000  1
  O  O45  1  0.25631000  0.13133000  0.09377000  1
  O  O46  1  0.24369000  0.13133000  0.90623000  1
  O  O47  1  0.24369000  0.36867000  0.59377000  1
  O  O48  1  0.09336000  0.41311000  0.81724000  1
  O  O49  1  0.09336000  0.08689000  0.68276000  1
  O  O50  1  0.06200000  0.11162000  0.30701000  1
  O  O51  1  0.06200000  0.38838000  0.19299000  1
