# generated using pymatgen
data_Co2H34C45(NO6)2
_symmetry_space_group_name_H-M   'P 1'
_cell_length_a   16.03460000
_cell_length_b   16.03460000
_cell_length_c   26.47100000
_cell_angle_alpha   84.31170000
_cell_angle_beta   84.31170000
_cell_angle_gamma   84.36830000
_symmetry_Int_Tables_number   1
_chemical_formula_structural   Co2H34C45(NO6)2
_chemical_formula_sum   'Co8 H136 C180 N8 O48'
_cell_volume   6712.19947612
_cell_formula_units_Z   4
loop_
 _symmetry_equiv_pos_site_id
 _symmetry_equiv_pos_as_xyz
  1  'x, y, z'
loop_
 _atom_site_type_symbol
 _atom_site_label
 _atom_site_symmetry_multiplicity
 _atom_site_fract_x
 _atom_site_fract_y
 _atom_site_fract_z
 _atom_site_occupancy
  Co  Co0  1  0.30618000  0.89754000  0.47033000  1
  Co  Co1  1  0.32122000  0.72722000  0.49349000  1
  Co  Co2  1  0.10246000  0.69382000  0.02967000  1
  Co  Co3  1  0.27278000  0.67878000  0.00651000  1
  Co  Co4  1  0.72722000  0.32122000  0.99349000  1
  Co  Co5  1  0.89754000  0.30618000  0.97033000  1
  Co  Co6  1  0.67878000  0.27278000  0.50651000  1
  Co  Co7  1  0.69382000  0.10246000  0.52967000  1
  H  H8  1  0.60680000  0.97420000  0.48490000  1
  H  H9  1  0.82350000  0.97330000  0.72610000  1
  H  H10  1  0.93980000  0.97060000  0.59570000  1
  H  H11  1  0.10970000  0.96930000  0.20930000  1
  H  H12  1  0.73210000  0.96150000  0.15350000  1
  H  H13  1  0.06870000  0.95050000  0.54960000  1
  H  H14  1  0.57440000  0.94820000  0.64250000  1
  H  H15  1  0.78850000  0.94730000  0.57250000  1
  H  H16  1  0.35170000  0.94710000  0.15590000  1
  H  H17  1  0.46940000  0.94080000  0.58870000  1
  H  H18  1  0.97060000  0.93980000  0.09570000  1
  H  H19  1  0.04950000  0.93130000  0.95040000  1
  H  H20  1  0.53810000  0.92790000  0.37740000  1
  H  H21  1  0.70850000  0.92710000  0.67120000  1
  H  H22  1  0.66460000  0.92580000  0.32940000  1
  H  H23  1  0.64680000  0.92040000  0.72140000  1
  H  H24  1  0.13260000  0.91820000  0.34330000  1
  H  H25  1  0.85060000  0.91400000  0.77380000  1
  H  H26  1  0.28980000  0.91280000  0.89920000  1
  H  H27  1  0.03070000  0.89030000  0.29070000  1
  H  H28  1  0.79600000  0.88660000  0.21700000  1
  H  H29  1  0.08180000  0.86740000  0.15670000  1
  H  H30  1  0.91400000  0.85060000  0.27380000  1
  H  H31  1  0.32560000  0.84140000  0.10900000  1
  H  H32  1  0.60970000  0.83230000  0.48250000  1
  H  H33  1  0.97330000  0.82350000  0.22610000  1
  H  H34  1  0.69760000  0.82320000  0.79960000  1
  H  H35  1  0.76830000  0.81950000  0.18410000  1
  H  H36  1  0.79410000  0.80270000  0.57320000  1
  H  H37  1  0.88660000  0.79600000  0.71700000  1
  H  H38  1  0.80270000  0.79410000  0.07320000  1
  H  H39  1  0.40880000  0.79160000  0.00950000  1
  H  H40  1  0.94730000  0.78850000  0.07250000  1
  H  H41  1  0.55210000  0.78430000  0.01790000  1
  H  H42  1  0.81950000  0.76830000  0.68410000  1
  H  H43  1  0.71430000  0.75050000  0.76300000  1
  H  H44  1  0.67810000  0.75010000  0.04430000  1
  H  H45  1  0.96150000  0.73210000  0.65350000  1
  H  H46  1  0.75050000  0.71430000  0.26300000  1
  H  H47  1  0.08720000  0.71020000  0.60080000  1
  H  H48  1  0.92710000  0.70850000  0.17120000  1
  H  H49  1  0.60070000  0.69850000  0.66320000  1
  H  H50  1  0.62040000  0.69800000  0.48790000  1
  H  H51  1  0.82320000  0.69760000  0.29960000  1
  H  H52  1  0.49400000  0.69200000  0.61150000  1
  H  H53  1  0.67590000  0.68690000  0.84460000  1
  H  H54  1  0.75010000  0.67810000  0.54430000  1
  H  H55  1  0.55920000  0.67800000  0.39410000  1
  H  H56  1  0.68690000  0.67590000  0.34460000  1
  H  H57  1  0.15860000  0.67440000  0.39100000  1
  H  H58  1  0.92580000  0.66460000  0.82940000  1
  H  H59  1  0.05290000  0.64830000  0.34410000  1
  H  H60  1  0.92040000  0.64680000  0.22140000  1
  H  H61  1  0.69800000  0.62040000  0.98790000  1
  H  H62  1  0.83230000  0.60970000  0.98250000  1
  H  H63  1  0.97420000  0.60680000  0.98490000  1
  H  H64  1  0.69850000  0.60070000  0.16320000  1
  H  H65  1  0.20840000  0.59120000  0.49050000  1
  H  H66  1  0.44070000  0.57510000  0.51810000  1
  H  H67  1  0.94820000  0.57440000  0.14250000  1
  H  H68  1  0.54330000  0.56490000  0.49520000  1
  H  H69  1  0.42490000  0.55930000  0.98190000  1
  H  H70  1  0.67800000  0.55920000  0.89410000  1
  H  H71  1  0.78430000  0.55210000  0.51790000  1
  H  H72  1  0.56490000  0.54330000  0.99520000  1
  H  H73  1  0.92790000  0.53810000  0.87740000  1
  H  H74  1  0.05920000  0.53060000  0.91130000  1
  H  H75  1  0.30800000  0.50600000  0.88850000  1
  H  H76  1  0.69200000  0.49400000  0.11150000  1
  H  H77  1  0.94080000  0.46940000  0.08870000  1
  H  H78  1  0.07210000  0.46190000  0.12260000  1
  H  H79  1  0.43510000  0.45670000  0.00480000  1
  H  H80  1  0.21570000  0.44790000  0.48210000  1
  H  H81  1  0.32200000  0.44080000  0.10590000  1
  H  H82  1  0.57510000  0.44070000  0.01810000  1
  H  H83  1  0.45670000  0.43510000  0.50480000  1
  H  H84  1  0.05180000  0.42560000  0.85750000  1
  H  H85  1  0.55930000  0.42490000  0.48190000  1
  H  H86  1  0.79160000  0.40880000  0.50950000  1
  H  H87  1  0.30150000  0.39930000  0.83680000  1
  H  H88  1  0.02580000  0.39320000  0.01510000  1
  H  H89  1  0.16770000  0.39030000  0.01750000  1
  H  H90  1  0.30200000  0.37960000  0.01210000  1
  H  H91  1  0.07960000  0.35320000  0.77860000  1
  H  H92  1  0.94710000  0.35170000  0.65590000  1
  H  H93  1  0.07420000  0.33540000  0.17060000  1
  H  H94  1  0.84140000  0.32560000  0.60900000  1
  H  H95  1  0.31310000  0.32410000  0.65540000  1
  H  H96  1  0.44080000  0.32200000  0.60590000  1
  H  H97  1  0.24990000  0.32190000  0.45570000  1
  H  H98  1  0.32410000  0.31310000  0.15540000  1
  H  H99  1  0.50600000  0.30800000  0.38850000  1
  H  H100  1  0.17680000  0.30240000  0.70040000  1
  H  H101  1  0.37960000  0.30200000  0.51210000  1
  H  H102  1  0.39930000  0.30150000  0.33680000  1
  H  H103  1  0.07290000  0.29150000  0.82880000  1
  H  H104  1  0.91280000  0.28980000  0.39920000  1
  H  H105  1  0.24950000  0.28570000  0.73700000  1
  H  H106  1  0.03850000  0.26790000  0.34650000  1
  H  H107  1  0.32190000  0.24990000  0.95570000  1
  H  H108  1  0.28570000  0.24950000  0.23700000  1
  H  H109  1  0.18050000  0.23170000  0.31590000  1
  H  H110  1  0.44790000  0.21570000  0.98210000  1
  H  H111  1  0.05270000  0.21150000  0.92750000  1
  H  H112  1  0.59120000  0.20840000  0.99050000  1
  H  H113  1  0.19730000  0.20590000  0.92680000  1
  H  H114  1  0.11340000  0.20400000  0.28300000  1
  H  H115  1  0.20590000  0.19730000  0.42680000  1
  H  H116  1  0.23170000  0.18050000  0.81590000  1
  H  H117  1  0.30240000  0.17680000  0.20040000  1
  H  H118  1  0.02670000  0.17650000  0.77390000  1
  H  H119  1  0.39030000  0.16770000  0.51750000  1
  H  H120  1  0.67440000  0.15860000  0.89100000  1
  H  H121  1  0.08600000  0.14940000  0.72620000  1
  H  H122  1  0.91820000  0.13260000  0.84330000  1
  H  H123  1  0.20400000  0.11340000  0.78300000  1
  H  H124  1  0.96930000  0.10970000  0.70930000  1
  H  H125  1  0.71020000  0.08720000  0.10080000  1
  H  H126  1  0.14940000  0.08600000  0.22620000  1
  H  H127  1  0.86740000  0.08180000  0.65670000  1
  H  H128  1  0.35320000  0.07960000  0.27860000  1
  H  H129  1  0.33540000  0.07420000  0.67060000  1
  H  H130  1  0.29150000  0.07290000  0.32880000  1
  H  H131  1  0.46190000  0.07210000  0.62260000  1
  H  H132  1  0.95050000  0.06870000  0.04960000  1
  H  H133  1  0.02940000  0.06020000  0.90430000  1
  H  H134  1  0.53060000  0.05920000  0.41130000  1
  H  H135  1  0.64830000  0.05290000  0.84410000  1
  H  H136  1  0.21150000  0.05270000  0.42750000  1
  H  H137  1  0.42560000  0.05180000  0.35750000  1
  H  H138  1  0.93130000  0.04950000  0.45040000  1
  H  H139  1  0.26790000  0.03850000  0.84650000  1
  H  H140  1  0.89030000  0.03070000  0.79070000  1
  H  H141  1  0.06020000  0.02940000  0.40430000  1
  H  H142  1  0.17650000  0.02670000  0.27390000  1
  H  H143  1  0.39320000  0.02580000  0.51510000  1
  C  C144  1  0.77601000  0.98221000  0.13179000  1
  C  C145  1  0.91807000  0.97009000  0.09813000  1
  C  C146  1  0.23343000  0.96443000  0.18793000  1
  C  C147  1  0.09449000  0.95309000  0.93023000  1
  C  C148  1  0.15295000  0.94349000  0.18865000  1
  C  C149  1  0.23639000  0.94117000  0.89930000  1
  C  C150  1  0.64604000  0.93950000  0.50270000  1
  C  C151  1  0.85426000  0.93926000  0.12921000  1
  C  C152  1  0.80361000  0.93433000  0.75409000  1
  C  C153  1  0.29787000  0.92947000  0.15728000  1
  C  C154  1  0.75168000  0.92406000  0.55391000  1
  C  C155  1  0.97009000  0.91807000  0.59813000  1
  C  C156  1  0.17147000  0.90867000  0.92917000  1
  C  C157  1  0.04691000  0.90551000  0.56977000  1
  C  C158  1  0.55918000  0.89618000  0.63563000  1
  C  C159  1  0.49564000  0.89146000  0.60366000  1
  C  C160  1  0.69093000  0.89023000  0.70081000  1
  C  C161  1  0.13652000  0.88162000  0.15734000  1
  C  C162  1  0.56755000  0.87651000  0.37088000  1
  C  C163  1  0.64302000  0.87522000  0.34189000  1
  C  C164  1  0.28143000  0.86763000  0.12869000  1
  C  C165  1  0.11838000  0.86348000  0.34266000  1
  C  C166  1  0.76778000  0.85840000  0.73269000  1
  C  C167  1  0.93926000  0.85426000  0.62921000  1
  C  C168  1  0.64755000  0.85395000  0.50112000  1
  C  C169  1  0.05651000  0.84705000  0.31135000  1
  C  C170  1  0.20095000  0.84245000  0.12797000  1
  C  C171  1  0.81619000  0.83925000  0.19756000  1
  C  C172  1  0.75581000  0.83633000  0.55410000  1
  C  C173  1  0.09133000  0.82853000  0.57083000  1
  C  C174  1  0.18346000  0.82506000  0.95927000  1
  C  C175  1  0.59794000  0.82414000  0.65637000  1
  C  C176  1  0.17494000  0.81654000  0.54073000  1
  C  C177  1  0.83925000  0.81619000  0.69756000  1
  C  C178  1  0.47162000  0.81550000  0.59410000  1
  C  C179  1  0.22031000  0.81463000  0.40752000  1
  C  C180  1  0.40881000  0.81027000  0.55660000  1
  C  C181  1  0.45304000  0.80612000  0.42286000  1
  C  C182  1  0.93433000  0.80361000  0.25409000  1
  C  C183  1  0.53479000  0.80341000  0.39045000  1
  C  C184  1  0.68729000  0.80109000  0.33100000  1
  C  C185  1  0.70451000  0.79981000  0.52672000  1
  C  C186  1  0.15755000  0.79905000  0.37203000  1
  C  C187  1  0.73950000  0.79548000  0.77629000  1
  C  C188  1  0.18537000  0.77969000  0.09248000  1
  C  C189  1  0.98221000  0.77601000  0.63179000  1
  C  C190  1  0.85840000  0.76778000  0.23269000  1
  C  C191  1  0.03557000  0.76657000  0.31207000  1
  C  C192  1  0.05883000  0.76361000  0.60070000  1
  C  C193  1  0.83633000  0.75581000  0.05410000  1
  C  C194  1  0.92406000  0.75168000  0.05391000  1
  C  C195  1  0.57435000  0.74763000  0.64810000  1
  C  C196  1  0.51061000  0.74411000  0.61694000  1
  C  C197  1  0.44060000  0.73980000  0.00880000  1
  C  C198  1  0.79548000  0.73950000  0.27629000  1
  C  C199  1  0.52740000  0.73640000  0.01210000  1
  C  C200  1  0.58012000  0.72836000  0.38064000  1
  C  C201  1  0.65668000  0.72686000  0.35093000  1
  C  C202  1  0.13237000  0.71857000  0.37131000  1
  C  C203  1  0.70812000  0.70884000  0.52675000  1
  C  C204  1  0.70884000  0.70812000  0.02675000  1
  C  C205  1  0.79981000  0.70451000  0.02672000  1
  C  C206  1  0.07053000  0.70213000  0.34272000  1
  C  C207  1  0.89023000  0.69093000  0.20081000  1
  C  C208  1  0.80109000  0.68729000  0.83100000  1
  C  C209  1  0.66150000  0.66710000  0.50605000  1
  C  C210  1  0.57490000  0.66370000  0.00680000  1
  C  C211  1  0.66710000  0.66150000  0.00605000  1
  C  C212  1  0.72686000  0.65668000  0.85093000  1
  C  C213  1  0.85395000  0.64755000  0.00112000  1
  C  C214  1  0.93950000  0.64604000  0.00270000  1
  C  C215  1  0.87522000  0.64302000  0.84189000  1
  C  C216  1  0.44980000  0.60320000  0.99330000  1
  C  C217  1  0.82414000  0.59794000  0.15637000  1
  C  C218  1  0.53440000  0.59520000  0.99800000  1
  C  C219  1  0.18973000  0.59119000  0.94340000  1
  C  C220  1  0.72836000  0.58012000  0.88064000  1
  C  C221  1  0.66370000  0.57490000  0.50680000  1
  C  C222  1  0.74763000  0.57435000  0.14810000  1
  C  C223  1  0.87651000  0.56755000  0.87088000  1
  C  C224  1  0.26020000  0.55940000  0.49120000  1
  C  C225  1  0.89618000  0.55918000  0.13563000  1
  C  C226  1  0.39680000  0.55020000  0.50670000  1
  C  C227  1  0.19388000  0.54696000  0.07714000  1
  C  C228  1  0.80341000  0.53479000  0.89045000  1
  C  C229  1  0.59520000  0.53440000  0.49800000  1
  C  C230  1  0.18450000  0.52838000  0.90590000  1
  C  C231  1  0.73640000  0.52740000  0.51210000  1
  C  C232  1  0.74411000  0.51061000  0.11694000  1
  C  C233  1  0.10854000  0.50436000  0.89634000  1
  C  C234  1  0.89146000  0.49564000  0.10366000  1
  C  C235  1  0.25589000  0.48939000  0.88306000  1
  C  C236  1  0.26360000  0.47260000  0.48790000  1
  C  C237  1  0.81550000  0.47162000  0.09410000  1
  C  C238  1  0.40480000  0.46560000  0.50200000  1
  C  C239  1  0.19659000  0.46521000  0.10955000  1
  C  C240  1  0.80612000  0.45304000  0.92286000  1
  C  C241  1  0.60320000  0.44980000  0.49330000  1
  C  C242  1  0.10382000  0.44082000  0.86437000  1
  C  C243  1  0.73980000  0.44060000  0.50880000  1
  C  C244  1  0.12349000  0.43245000  0.12912000  1
  C  C245  1  0.25237000  0.42565000  0.85190000  1
  C  C246  1  0.33630000  0.42510000  0.49320000  1
  C  C247  1  0.27164000  0.41988000  0.11936000  1
  C  C248  1  0.81027000  0.40881000  0.05660000  1
  C  C249  1  0.46560000  0.40480000  0.00200000  1
  C  C250  1  0.17586000  0.40206000  0.84363000  1
  C  C251  1  0.55020000  0.39680000  0.00670000  1
  C  C252  1  0.12478000  0.35698000  0.15811000  1
  C  C253  1  0.06050000  0.35396000  0.99730000  1
  C  C254  1  0.14605000  0.35245000  0.99888000  1
  C  C255  1  0.27314000  0.34332000  0.14907000  1
  C  C256  1  0.33290000  0.33850000  0.99395000  1
  C  C257  1  0.42510000  0.33630000  0.99320000  1
  C  C258  1  0.33850000  0.33290000  0.49395000  1
  C  C259  1  0.19891000  0.31271000  0.16900000  1
  C  C260  1  0.10977000  0.30907000  0.79919000  1
  C  C261  1  0.92947000  0.29787000  0.65728000  1
  C  C262  1  0.20019000  0.29549000  0.97328000  1
  C  C263  1  0.29116000  0.29188000  0.97325000  1
  C  C264  1  0.29188000  0.29116000  0.47325000  1
  C  C265  1  0.86763000  0.28143000  0.62869000  1
  C  C266  1  0.34332000  0.27314000  0.64907000  1
  C  C267  1  0.41988000  0.27164000  0.61936000  1
  C  C268  1  0.47260000  0.26360000  0.98790000  1
  C  C269  1  0.20452000  0.26050000  0.72371000  1
  C  C270  1  0.55940000  0.26020000  0.99120000  1
  C  C271  1  0.48939000  0.25589000  0.38306000  1
  C  C272  1  0.42565000  0.25237000  0.35190000  1
  C  C273  1  0.07594000  0.24832000  0.94609000  1
  C  C274  1  0.16367000  0.24419000  0.94590000  1
  C  C275  1  0.94117000  0.23639000  0.39930000  1
  C  C276  1  0.96443000  0.23343000  0.68793000  1
  C  C277  1  0.14160000  0.23222000  0.76731000  1
  C  C278  1  0.01779000  0.22399000  0.36821000  1
  C  C279  1  0.81463000  0.22031000  0.90752000  1
  C  C280  1  0.26050000  0.20452000  0.22371000  1
  C  C281  1  0.84245000  0.20095000  0.62797000  1
  C  C282  1  0.29549000  0.20019000  0.47328000  1
  C  C283  1  0.31271000  0.19891000  0.66900000  1
  C  C284  1  0.46521000  0.19659000  0.60955000  1
  C  C285  1  0.06567000  0.19639000  0.74591000  1
  C  C286  1  0.54696000  0.19388000  0.57714000  1
  C  C287  1  0.59119000  0.18973000  0.44340000  1
  C  C288  1  0.77969000  0.18537000  0.59248000  1
  C  C289  1  0.52838000  0.18450000  0.40590000  1
  C  C290  1  0.16075000  0.18381000  0.30244000  1
  C  C291  1  0.82506000  0.18346000  0.45927000  1
  C  C292  1  0.40206000  0.17586000  0.34363000  1
  C  C293  1  0.81654000  0.17494000  0.04073000  1
  C  C294  1  0.90867000  0.17147000  0.42917000  1
  C  C295  1  0.24419000  0.16367000  0.44590000  1
  C  C296  1  0.18381000  0.16075000  0.80244000  1
  C  C297  1  0.79905000  0.15755000  0.87203000  1
  C  C298  1  0.94349000  0.15295000  0.68865000  1
  C  C299  1  0.35245000  0.14605000  0.49888000  1
  C  C300  1  0.06074000  0.14574000  0.37079000  1
  C  C301  1  0.23222000  0.14160000  0.26731000  1
  C  C302  1  0.88162000  0.13652000  0.65734000  1
  C  C303  1  0.71857000  0.13237000  0.87131000  1
  C  C304  1  0.35698000  0.12478000  0.65811000  1
  C  C305  1  0.43245000  0.12349000  0.62912000  1
  C  C306  1  0.86348000  0.11838000  0.84266000  1
  C  C307  1  0.30907000  0.10977000  0.29919000  1
  C  C308  1  0.50436000  0.10854000  0.39634000  1
  C  C309  1  0.44082000  0.10382000  0.36437000  1
  C  C310  1  0.95309000  0.09449000  0.43023000  1
  C  C311  1  0.82853000  0.09133000  0.07083000  1
  C  C312  1  0.02991000  0.08193000  0.40187000  1
  C  C313  1  0.24832000  0.07594000  0.44609000  1
  C  C314  1  0.70213000  0.07053000  0.84272000  1
  C  C315  1  0.19639000  0.06567000  0.24591000  1
  C  C316  1  0.14574000  0.06074000  0.87079000  1
  C  C317  1  0.35396000  0.06050000  0.49730000  1
  C  C318  1  0.76361000  0.05883000  0.10070000  1
  C  C319  1  0.84705000  0.05651000  0.81135000  1
  C  C320  1  0.90551000  0.04691000  0.06977000  1
  C  C321  1  0.76657000  0.03557000  0.81207000  1
  C  C322  1  0.08193000  0.02991000  0.90187000  1
  C  C323  1  0.22399000  0.01779000  0.86821000  1
  N  N324  1  0.69791000  0.97487000  0.52853000  1
  N  N325  1  0.97487000  0.69791000  0.02853000  1
  N  N326  1  0.40300000  0.67300000  0.00500000  1
  N  N327  1  0.32700000  0.59700000  0.49500000  1
  N  N328  1  0.67300000  0.40300000  0.50500000  1
  N  N329  1  0.59700000  0.32700000  0.99500000  1
  N  N330  1  0.02513000  0.30209000  0.97147000  1
  N  N331  1  0.30209000  0.02513000  0.47147000  1
  O  O332  1  0.74104000  0.97400000  0.78424000  1
  O  O333  1  0.23516000  0.88920000  0.41167000  1
  O  O334  1  0.20284000  0.88268000  0.51799000  1
  O  O335  1  0.41419000  0.87711000  0.42720000  1
  O  O336  1  0.37887000  0.87621000  0.53368000  1
  O  O337  1  0.86453000  0.87403000  0.65770000  1
  O  O338  1  0.87403000  0.86453000  0.15770000  1
  O  O339  1  0.66352000  0.81758000  0.68638000  1
  O  O340  1  0.76238000  0.80852000  0.30198000  1
  O  O341  1  0.11732000  0.79716000  0.98201000  1
  O  O342  1  0.25578000  0.78858000  0.96138000  1
  O  O343  1  0.11080000  0.76484000  0.08833000  1
  O  O344  1  0.80852000  0.76238000  0.80198000  1
  O  O345  1  0.25241000  0.75063000  0.43308000  1
  O  O346  1  0.24937000  0.74759000  0.06692000  1
  O  O347  1  0.21142000  0.74422000  0.53862000  1
  O  O348  1  0.97400000  0.74104000  0.28424000  1
  O  O349  1  0.42876000  0.73718000  0.44381000  1
  O  O350  1  0.39114000  0.73698000  0.55014000  1
  O  O351  1  0.81758000  0.66352000  0.18638000  1
  O  O352  1  0.12379000  0.62113000  0.96632000  1
  O  O353  1  0.26302000  0.60886000  0.94986000  1
  O  O354  1  0.12289000  0.58581000  0.07280000  1
  O  O355  1  0.26282000  0.57124000  0.05619000  1
  O  O356  1  0.73718000  0.42876000  0.94381000  1
  O  O357  1  0.87711000  0.41419000  0.92720000  1
  O  O358  1  0.73698000  0.39114000  0.05014000  1
  O  O359  1  0.87621000  0.37887000  0.03368000  1
  O  O360  1  0.18242000  0.33648000  0.81362000  1
  O  O361  1  0.60886000  0.26302000  0.44986000  1
  O  O362  1  0.57124000  0.26282000  0.55619000  1
  O  O363  1  0.02600000  0.25896000  0.71576000  1
  O  O364  1  0.78858000  0.25578000  0.46138000  1
  O  O365  1  0.75063000  0.25241000  0.93308000  1
  O  O366  1  0.74759000  0.24937000  0.56692000  1
  O  O367  1  0.19148000  0.23762000  0.19802000  1
  O  O368  1  0.88920000  0.23516000  0.91167000  1
  O  O369  1  0.74422000  0.21142000  0.03862000  1
  O  O370  1  0.88268000  0.20284000  0.01799000  1
  O  O371  1  0.23762000  0.19148000  0.69802000  1
  O  O372  1  0.33648000  0.18242000  0.31362000  1
  O  O373  1  0.12597000  0.13547000  0.84230000  1
  O  O374  1  0.13547000  0.12597000  0.34230000  1
  O  O375  1  0.62113000  0.12379000  0.46632000  1
  O  O376  1  0.58581000  0.12289000  0.57280000  1
  O  O377  1  0.79716000  0.11732000  0.48201000  1
  O  O378  1  0.76484000  0.11080000  0.58833000  1
  O  O379  1  0.25896000  0.02600000  0.21576000  1
