# generated using pymatgen
data_CuH22C24(NO)4
_symmetry_space_group_name_H-M   'P 1'
_cell_length_a   11.73560000
_cell_length_b   17.68442319
_cell_length_c   17.68442319
_cell_angle_alpha   83.67919036
_cell_angle_beta   70.62156312
_cell_angle_gamma   70.62156312
_symmetry_Int_Tables_number   1
_chemical_formula_structural   CuH22C24(NO)4
_chemical_formula_sum   'Cu4 H88 C96 N16 O16'
_cell_volume   3266.10839153
_cell_formula_units_Z   4
loop_
 _symmetry_equiv_pos_site_id
 _symmetry_equiv_pos_as_xyz
  1  'x, y, z'
loop_
 _atom_site_type_symbol
 _atom_site_label
 _atom_site_symmetry_multiplicity
 _atom_site_fract_x
 _atom_site_fract_y
 _atom_site_fract_z
 _atom_site_occupancy
  C  C0  1  0.23986000  0.84781000  0.06227000  1
  C  C1  1  0.85006000  0.34781000  0.56227000  1
  C  C2  1  0.24676000  0.43877000  0.42011000  1
  C  C3  1  0.89436000  0.93877000  0.92011000  1
  C  C4  1  0.26080000  0.86805000  0.97535000  1
  C  C5  1  0.89580000  0.36805000  0.47535000  1
  C  C6  1  0.37036000  0.42749000  0.35299000  1
  C  C7  1  0.84916000  0.92749000  0.85299000  1
  C  C8  1  0.37325000  0.47602000  0.28508000  1
  C  C9  1  0.86565000  0.97602000  0.78508000  1
  C  C10  1  0.54372000  0.77546000  0.96890000  1
  C  C11  1  0.71192000  0.27546000  0.46890000  1
  C  C12  1  0.36830000  0.83304000  0.90956000  1
  C  C13  1  0.88910000  0.33304000  0.40956000  1
  C  C14  1  0.48231000  0.37088000  0.35850000  1
  C  C15  1  0.78831000  0.87088000  0.85850000  1
  C  C16  1  0.69787000  0.56227000  0.15219000  1
  C  C17  1  0.58767000  0.06227000  0.65219000  1
  C  C18  1  0.95004000  0.36957000  0.34195000  1
  C  C19  1  0.33844000  0.86957000  0.84195000  1
  C  C20  1  0.48738000  0.46890000  0.22454000  1
  C  C21  1  0.81918000  0.96890000  0.72454000  1
  C  C22  1  0.65073000  0.71492000  0.97602000  1
  C  C23  1  0.65833000  0.21492000  0.47602000  1
  C  C24  1  0.48583000  0.76957000  0.91337000  1
  C  C25  1  0.83123000  0.26957000  0.41337000  1
  C  C26  1  0.59649000  0.36367000  0.29795000  1
  C  C27  1  0.74189000  0.86367000  0.79795000  1
  C  C28  1  0.60080000  0.41337000  0.23043000  1
  C  C29  1  0.75540000  0.91337000  0.73043000  1
  C  C30  1  0.97558000  0.35917000  0.25467000  1
  C  C31  1  0.41058000  0.85917000  0.75467000  1
  C  C32  1  0.76385000  0.47535000  0.13195000  1
  C  C33  1  0.62885000  0.97535000  0.63195000  1
  C  C34  1  0.16525000  0.74533000  0.85917000  1
  C  C35  1  0.23025000  0.24533000  0.35917000  1
  C  C36  1  0.72214000  0.40956000  0.16696000  1
  C  C37  1  0.70134000  0.90956000  0.66696000  1
  C  C38  1  0.70215000  0.64701000  0.92749000  1
  C  C39  1  0.72335000  0.14701000  0.42749000  1
  C  C40  1  0.53984000  0.70205000  0.86367000  1
  C  C41  1  0.89444000  0.20205000  0.36367000  1
  C  C42  1  0.18039000  0.65805000  0.86957000  1
  C  C43  1  0.29199000  0.15805000  0.36957000  1
  C  C44  1  0.81447000  0.57989000  0.93877000  1
  C  C45  1  0.66687000  0.07989000  0.43877000  1
  C  C46  1  0.64681000  0.64150000  0.87088000  1
  C  C47  1  0.84081000  0.14150000  0.37088000  1
  C  C48  1  0.35319000  0.35850000  0.12912000  1
  C  C49  1  0.15919000  0.85850000  0.62912000  1
  C  C50  1  0.18553000  0.42011000  0.06123000  1
  C  C51  1  0.33313000  0.92011000  0.56123000  1
  C  C52  1  0.81961000  0.34195000  0.13043000  1
  C  C53  1  0.70801000  0.84195000  0.63043000  1
  C  C54  1  0.46016000  0.29795000  0.13633000  1
  C  C55  1  0.10556000  0.79795000  0.63633000  1
  C  C56  1  0.29785000  0.35299000  0.07251000  1
  C  C57  1  0.27665000  0.85299000  0.57251000  1
  C  C58  1  0.27786000  0.59044000  0.83304000  1
  C  C59  1  0.29866000  0.09044000  0.33304000  1
  C  C60  1  0.83475000  0.25467000  0.14083000  1
  C  C61  1  0.76975000  0.75467000  0.64083000  1
  C  C62  1  0.23615000  0.52465000  0.86805000  1
  C  C63  1  0.37115000  0.02465000  0.36805000  1
  C  C64  1  0.02442000  0.64083000  0.74533000  1
  C  C65  1  0.58942000  0.14083000  0.24533000  1
  C  C66  1  0.39920000  0.58663000  0.76957000  1
  C  C67  1  0.24460000  0.08663000  0.26957000  1
  C  C68  1  0.40351000  0.63633000  0.70205000  1
  C  C69  1  0.25811000  0.13633000  0.20205000  1
  C  C70  1  0.51417000  0.23043000  0.08663000  1
  C  C71  1  0.16877000  0.73043000  0.58663000  1
  C  C72  1  0.34927000  0.28508000  0.02398000  1
  C  C73  1  0.34167000  0.78508000  0.52398000  1
  C  C74  1  0.51262000  0.53110000  0.77546000  1
  C  C75  1  0.18082000  0.03110000  0.27546000  1
  C  C76  1  0.04996000  0.63043000  0.65805000  1
  C  C77  1  0.66156000  0.13043000  0.15805000  1
  C  C78  1  0.30213000  0.43773000  0.84781000  1
  C  C79  1  0.41233000  0.93773000  0.34781000  1
  C  C80  1  0.51769000  0.62912000  0.64150000  1
  C  C81  1  0.21169000  0.12912000  0.14150000  1
  C  C82  1  0.63170000  0.16696000  0.09044000  1
  C  C83  1  0.11090000  0.66696000  0.59044000  1
  C  C84  1  0.45628000  0.22454000  0.03110000  1
  C  C85  1  0.28808000  0.72454000  0.53110000  1
  C  C86  1  0.62675000  0.52398000  0.71492000  1
  C  C87  1  0.13435000  0.02398000  0.21492000  1
  C  C88  1  0.62964000  0.57251000  0.64701000  1
  C  C89  1  0.15084000  0.07251000  0.14701000  1
  C  C90  1  0.73920000  0.13195000  0.02465000  1
  C  C91  1  0.10420000  0.63195000  0.52465000  1
  C  C92  1  0.75324000  0.56123000  0.57989000  1
  C  C93  1  0.10564000  0.06123000  0.07989000  1
  C  C94  1  0.76014000  0.15219000  0.93773000  1
  C  C95  1  0.14994000  0.65219000  0.43773000  1
  Cu  Cu96  1  0.00000000  0.00000000  0.00000000  1
  Cu  Cu97  1  0.00000000  0.50000000  0.50000000  1
  Cu  Cu98  1  1.00000000  0.50000000  1.00000000  1
  Cu  Cu99  1  0.50000000  0.00000000  0.50000000  1
  H  H100  1  0.27040000  0.88060000  0.08560000  1
  H  H101  1  0.76340000  0.38060000  0.58560000  1
  H  H102  1  0.15070000  0.85750000  0.08930000  1
  H  H103  1  0.90250000  0.35750000  0.58930000  1
  H  H104  1  0.28530000  0.79230000  0.06770000  1
  H  H105  1  0.85470000  0.29230000  0.56770000  1
  H  H106  1  0.51020000  0.82050000  0.00150000  1
  H  H107  1  0.66780000  0.32050000  0.50150000  1
  H  H108  1  0.29840000  0.51330000  0.28050000  1
  H  H109  1  0.90780000  0.01330000  0.78050000  1
  H  H110  1  0.02990000  0.45160000  0.33660000  1
  H  H111  1  0.18190000  0.95160000  0.83660000  1
  H  H112  1  0.64700000  0.56770000  0.20770000  1
  H  H113  1  0.57760000  0.06770000  0.70770000  1
  H  H114  1  0.77850000  0.83760000  0.90320000  1
  H  H115  1  0.48070000  0.33760000  0.40320000  1
  H  H116  1  0.68830000  0.71950000  0.01330000  1
  H  H117  1  0.57890000  0.21950000  0.51330000  1
  H  H118  1  0.76000000  0.58930000  0.14250000  1
  H  H119  1  0.50820000  0.08930000  0.64250000  1
  H  H120  1  0.64400000  0.58560000  0.11940000  1
  H  H121  1  0.65100000  0.08560000  0.61940000  1
  H  H122  1  0.11570000  0.77240000  0.90940000  1
  H  H123  1  0.20250000  0.27240000  0.40940000  1
  H  H124  1  0.48830000  0.50150000  0.17950000  1
  H  H125  1  0.83070000  0.00150000  0.67950000  1
  H  H126  1  0.97490000  0.40940000  0.22760000  1
  H  H127  1  0.38810000  0.90940000  0.72760000  1
  H  H128  1  0.67080000  0.32540000  0.30220000  1
  H  H129  1  0.70160000  0.82540000  0.80220000  1
  H  H130  1  0.01850000  0.66340000  0.95160000  1
  H  H131  1  0.36650000  0.16340000  0.45160000  1
  H  H132  1  0.24760000  0.75270000  0.84150000  1
  H  H133  1  0.15820000  0.25270000  0.34150000  1
  H  H134  1  0.91090000  0.34150000  0.24730000  1
  H  H135  1  0.50030000  0.84150000  0.74730000  1
  H  H136  1  0.12280000  0.76710000  0.81990000  1
  H  H137  1  0.29020000  0.26710000  0.31990000  1
  H  H138  1  0.31830000  0.40320000  0.16240000  1
  H  H139  1  0.11610000  0.90320000  0.66240000  1
  H  H140  1  0.05730000  0.31990000  0.23290000  1
  H  H141  1  0.38990000  0.81990000  0.73290000  1
  H  H142  1  0.50380000  0.69780000  0.82540000  1
  H  H143  1  0.97300000  0.19780000  0.32540000  1
  H  H144  1  0.49620000  0.30220000  0.17460000  1
  H  H145  1  0.02700000  0.80220000  0.67460000  1
  H  H146  1  0.94270000  0.68010000  0.76710000  1
  H  H147  1  0.61010000  0.18010000  0.26710000  1
  H  H148  1  0.68170000  0.59680000  0.83760000  1
  H  H149  1  0.88390000  0.09680000  0.33760000  1
  H  H150  1  0.87720000  0.23290000  0.18010000  1
  H  H151  1  0.70980000  0.73290000  0.68010000  1
  H  H152  1  0.08910000  0.65850000  0.75270000  1
  H  H153  1  0.49970000  0.15850000  0.25270000  1
  H  H154  1  0.75240000  0.24730000  0.15850000  1
  H  H155  1  0.84180000  0.74730000  0.65850000  1
  H  H156  1  0.98150000  0.33660000  0.04840000  1
  H  H157  1  0.63350000  0.83660000  0.54840000  1
  H  H158  1  0.32920000  0.67460000  0.69780000  1
  H  H159  1  0.29840000  0.17460000  0.19780000  1
  H  H160  1  0.02510000  0.59060000  0.77240000  1
  H  H161  1  0.61190000  0.09060000  0.27240000  1
  H  H162  1  0.51170000  0.49850000  0.82050000  1
  H  H163  1  0.16930000  0.99850000  0.32050000  1
  H  H164  1  0.88430000  0.22760000  0.09060000  1
  H  H165  1  0.79750000  0.72760000  0.59060000  1
  H  H166  1  0.35600000  0.41440000  0.88060000  1
  H  H167  1  0.34900000  0.91440000  0.38060000  1
  H  H168  1  0.24000000  0.41070000  0.85750000  1
  H  H169  1  0.49180000  0.91070000  0.35750000  1
  H  H170  1  0.31170000  0.28050000  0.98670000  1
  H  H171  1  0.42110000  0.78050000  0.48670000  1
  H  H172  1  0.22150000  0.16240000  0.09680000  1
  H  H173  1  0.51930000  0.66240000  0.59680000  1
  H  H174  1  0.35300000  0.43230000  0.79230000  1
  H  H175  1  0.42240000  0.93230000  0.29230000  1
  H  H176  1  0.97010000  0.54840000  0.66340000  1
  H  H177  1  0.81810000  0.04840000  0.16340000  1
  H  H178  1  0.70160000  0.48670000  0.71950000  1
  H  H179  1  0.09220000  0.98670000  0.21950000  1
  H  H180  1  0.48980000  0.17950000  0.99850000  1
  H  H181  1  0.33220000  0.67950000  0.49850000  1
  H  H182  1  0.71470000  0.20770000  0.93230000  1
  H  H183  1  0.14530000  0.70770000  0.43230000  1
  H  H184  1  0.84930000  0.14250000  0.91070000  1
  H  H185  1  0.09750000  0.64250000  0.41070000  1
  H  H186  1  0.72960000  0.11940000  0.91440000  1
  H  H187  1  0.23660000  0.61940000  0.41440000  1
  N  N188  1  0.17165000  0.92217000  0.94923000  1
  N  N189  1  0.95695000  0.42217000  0.44923000  1
  N  N190  1  0.98912000  0.42177000  0.36779000  1
  N  N191  1  0.22132000  0.92177000  0.86779000  1
  N  N192  1  0.08911000  0.63221000  0.92177000  1
  N  N193  1  0.35691000  0.13221000  0.42177000  1
  N  N194  1  0.87912000  0.44923000  0.07783000  1
  N  N195  1  0.59382000  0.94923000  0.57783000  1
  N  N196  1  0.12088000  0.55077000  0.92217000  1
  N  N197  1  0.40618000  0.05077000  0.42217000  1
  N  N198  1  0.91089000  0.36779000  0.07823000  1
  N  N199  1  0.64309000  0.86779000  0.57823000  1
  N  N200  1  0.01088000  0.57823000  0.63221000  1
  N  N201  1  0.77868000  0.07823000  0.13221000  1
  N  N202  1  0.82835000  0.07783000  0.05077000  1
  N  N203  1  0.04305000  0.57783000  0.55077000  1
  O  O204  1  0.14897000  0.48859000  0.40701000  1
  O  O205  1  0.95543000  0.98859000  0.90701000  1
  O  O206  1  0.86971000  0.90155000  0.98463000  1
  O  O207  1  0.24411000  0.40155000  0.48463000  1
  O  O208  1  0.14566000  0.48463000  0.09845000  1
  O  O209  1  0.27126000  0.98463000  0.59845000  1
  O  O210  1  0.86244000  0.59299000  0.98859000  1
  O  O211  1  0.55598000  0.09299000  0.48859000  1
  O  O212  1  0.13756000  0.40701000  0.01141000  1
  O  O213  1  0.44402000  0.90701000  0.51141000  1
  O  O214  1  0.85434000  0.51537000  0.90155000  1
  O  O215  1  0.72874000  0.01537000  0.40155000  1
  O  O216  1  0.13029000  0.09845000  0.01537000  1
  O  O217  1  0.75589000  0.59845000  0.51537000  1
  O  O218  1  0.85103000  0.51141000  0.59299000  1
  O  O219  1  0.04457000  0.01141000  0.09299000  1
