# generated using pymatgen
data_AgH12(C3N)6
_symmetry_space_group_name_H-M   'P 1'
_cell_length_a   13.79336299
_cell_length_b   13.79336299
_cell_length_c   24.60531780
_cell_angle_alpha   101.87375056
_cell_angle_beta   101.86351955
_cell_angle_gamma   105.44039075
_symmetry_Int_Tables_number   1
_chemical_formula_structural   AgH12(C3N)6
_chemical_formula_sum   'Ag8 H96 C144 N48'
_cell_volume   4244.28181607
_cell_formula_units_Z   8
loop_
 _symmetry_equiv_pos_site_id
 _symmetry_equiv_pos_as_xyz
  1  'x, y, z'
loop_
 _atom_site_type_symbol
 _atom_site_label
 _atom_site_symmetry_multiplicity
 _atom_site_fract_x
 _atom_site_fract_y
 _atom_site_fract_z
 _atom_site_occupancy
  Ag  Ag0  1  0.70130000  0.92500000  0.63256000  1
  Ag  Ag1  1  0.70756000  0.43126000  0.13256000  1
  Ag  Ag2  1  0.51758000  0.19690000  0.13206000  1
  Ag  Ag3  1  0.93516000  0.11448000  0.63206000  1
  Ag  Ag4  1  0.48242000  0.80310000  0.86794000  1
  Ag  Ag5  1  0.06484000  0.88552000  0.36794000  1
  Ag  Ag6  1  0.29870000  0.07500000  0.36744000  1
  Ag  Ag7  1  0.29244000  0.56874000  0.86744000  1
  C  C8  1  0.13900000  0.14150000  0.02550000  1
  C  C9  1  0.88400000  0.38650000  0.52550000  1
  C  C10  1  0.36240000  0.81450000  0.47690000  1
  C  C11  1  0.66240000  0.61450000  0.97690000  1
  C  C12  1  0.37650000  0.42230000  0.08200000  1
  C  C13  1  0.40540000  0.36050000  0.99130000  1
  C  C14  1  0.63080000  0.08590000  0.49130000  1
  C  C15  1  0.65970000  0.20550000  0.58200000  1
  C  C16  1  0.17840000  0.18490000  0.08510000  1
  C  C17  1  0.90020000  0.40670000  0.58510000  1
  C  C18  1  0.20870000  0.11780000  0.99470000  1
  C  C19  1  0.87690000  0.28600000  0.49470000  1
  C  C20  1  0.12710000  0.53250000  0.50460000  1
  C  C21  1  0.97210000  0.87750000  0.00460000  1
  C  C22  1  0.37620000  0.73300000  0.50600000  1
  C  C23  1  0.77300000  0.62980000  0.00600000  1
  C  C24  1  0.47730000  0.42980000  0.10810000  1
  C  C25  1  0.67830000  0.13080000  0.60810000  1
  C  C26  1  0.50700000  0.37220000  0.02100000  1
  C  C27  1  0.64880000  0.01400000  0.52100000  1
  C  C28  1  0.28120000  0.19820000  0.11120000  1
  C  C29  1  0.91300000  0.33000000  0.61120000  1
  C  C30  1  0.31010000  0.13380000  0.02570000  1
  C  C31  1  0.89190000  0.21560000  0.52570000  1
  C  C32  1  0.15160000  0.48500000  0.58720000  1
  C  C33  1  0.10220000  0.93560000  0.08720000  1
  C  C34  1  0.13420000  0.88090000  0.00170000  1
  C  C35  1  0.12080000  0.36750000  0.50170000  1
  C  C36  1  0.18870000  0.84410000  0.91060000  1
  C  C37  1  0.06650000  0.22190000  0.41060000  1
  C  C38  1  0.18700000  0.60540000  0.68440000  1
  C  C39  1  0.07900000  0.99740000  0.18440000  1
  C  C40  1  0.37290000  0.56700000  0.50030000  1
  C  C41  1  0.93330000  0.62740000  0.00030000  1
  C  C42  1  0.33010000  0.42710000  0.40700000  1
  C  C43  1  0.97990000  0.57690000  0.90700000  1
  C  C44  1  0.42380000  0.79490000  0.68330000  1
  C  C45  1  0.88840000  0.75950000  0.18330000  1
  C  C46  1  0.17230000  0.50660000  0.65050000  1
  C  C47  1  0.14390000  0.97820000  0.15050000  1
  C  C48  1  0.40980000  0.68040000  0.58720000  1
  C  C49  1  0.90680000  0.67740000  0.08720000  1
  C  C50  1  0.21040000  0.86160000  0.96900000  1
  C  C51  1  0.10740000  0.25860000  0.46900000  1
  C  C52  1  0.26350000  0.82670000  0.88420000  1
  C  C53  1  0.05750000  0.12070000  0.38420000  1
  C  C54  1  0.21310000  0.62150000  0.74380000  1
  C  C55  1  0.12230000  0.03070000  0.24380000  1
  C  C56  1  0.35950000  0.45860000  0.46630000  1
  C  C57  1  0.00770000  0.60680000  0.96630000  1
  C  C58  1  0.31630000  0.32470000  0.37900000  1
  C  C59  1  0.05430000  0.56270000  0.87900000  1
  C  C60  1  0.44310000  0.81220000  0.74190000  1
  C  C61  1  0.92970000  0.79880000  0.24190000  1
  C  C62  1  0.43190000  0.70360000  0.65150000  1
  C  C63  1  0.94790000  0.71960000  0.15150000  1
  C  C64  1  0.24940000  0.00190000  0.17730000  1
  C  C65  1  0.17540000  0.42790000  0.67730000  1
  C  C66  1  0.52350000  0.34050000  0.26040000  1
  C  C67  1  0.91990000  0.23690000  0.76040000  1
  C  C68  1  0.30750000  0.86090000  0.99820000  1
  C  C69  1  0.13730000  0.19070000  0.49820000  1
  C  C70  1  0.63580000  0.71260000  0.53540000  1
  C  C71  1  0.82280000  0.39960000  0.03540000  1
  C  C72  1  0.28480000  0.03840000  0.23660000  1
  C  C73  1  0.19820000  0.45180000  0.73660000  1
  C  C74  1  0.37670000  0.38670000  0.49560000  1
  C  C75  1  0.10890000  0.61890000  0.99560000  1
  C  C76  1  0.54110000  0.36470000  0.32000000  1
  C  C77  1  0.95530000  0.27890000  0.82000000  1
  C  C78  1  0.62420000  0.15810000  0.03190000  1
  C  C79  1  0.87380000  0.90770000  0.53190000  1
  C  C80  1  0.37580000  0.84190000  0.96810000  1
  C  C81  1  0.12620000  0.09230000  0.46810000  1
  C  C82  1  0.45890000  0.63530000  0.68000000  1
  C  C83  1  0.04470000  0.72110000  0.18000000  1
  C  C84  1  0.62330000  0.61330000  0.50440000  1
  C  C85  1  0.89110000  0.38110000  0.00440000  1
  C  C86  1  0.71520000  0.96160000  0.76340000  1
  C  C87  1  0.80180000  0.54820000  0.26340000  1
  C  C88  1  0.36420000  0.28740000  0.46460000  1
  C  C89  1  0.17720000  0.60040000  0.96460000  1
  C  C90  1  0.69250000  0.13910000  0.00180000  1
  C  C91  1  0.86270000  0.80930000  0.50180000  1
  C  C92  1  0.47650000  0.65950000  0.73960000  1
  C  C93  1  0.08010000  0.76310000  0.23960000  1
  C  C94  1  0.75060000  0.99810000  0.82270000  1
  C  C95  1  0.82460000  0.57210000  0.32270000  1
  C  C96  1  0.56810000  0.29640000  0.34850000  1
  C  C97  1  0.05210000  0.28040000  0.84850000  1
  C  C98  1  0.55690000  0.18780000  0.25810000  1
  C  C99  1  0.07030000  0.20120000  0.75810000  1
  C  C100  1  0.68370000  0.67530000  0.62100000  1
  C  C101  1  0.94570000  0.43730000  0.12100000  1
  C  C102  1  0.64050000  0.54140000  0.53370000  1
  C  C103  1  0.99230000  0.39320000  0.03370000  1
  C  C104  1  0.78690000  0.37850000  0.25620000  1
  C  C105  1  0.87770000  0.96930000  0.75620000  1
  C  C106  1  0.73650000  0.17330000  0.11580000  1
  C  C107  1  0.94250000  0.87930000  0.61580000  1
  C  C108  1  0.78960000  0.13840000  0.03100000  1
  C  C109  1  0.89260000  0.74140000  0.53100000  1
  C  C110  1  0.59020000  0.31960000  0.41280000  1
  C  C111  1  0.09320000  0.32260000  0.91280000  1
  C  C112  1  0.82770000  0.49340000  0.34950000  1
  C  C113  1  0.85610000  0.02180000  0.84950000  1
  C  C114  1  0.57620000  0.20510000  0.31670000  1
  C  C115  1  0.11160000  0.24050000  0.81670000  1
  C  C116  1  0.66990000  0.57290000  0.59300000  1
  C  C117  1  0.02010000  0.42310000  0.09300000  1
  C  C118  1  0.62710000  0.43300000  0.49970000  1
  C  C119  1  0.06670000  0.37260000  0.99970000  1
  C  C120  1  0.81300000  0.39460000  0.31560000  1
  C  C121  1  0.92100000  0.00260000  0.81560000  1
  C  C122  1  0.81130000  0.15590000  0.08940000  1
  C  C123  1  0.93350000  0.77810000  0.58940000  1
  C  C124  1  0.86580000  0.11910000  0.99830000  1
  C  C125  1  0.87920000  0.63250000  0.49830000  1
  C  C126  1  0.84840000  0.51500000  0.41280000  1
  C  C127  1  0.89780000  0.06440000  0.91280000  1
  C  C128  1  0.68990000  0.86620000  0.97430000  1
  C  C129  1  0.10810000  0.78440000  0.47430000  1
  C  C130  1  0.71880000  0.80180000  0.88880000  1
  C  C131  1  0.08700000  0.67000000  0.38880000  1
  C  C132  1  0.49300000  0.62780000  0.97900000  1
  C  C133  1  0.35120000  0.98600000  0.47900000  1
  C  C134  1  0.52270000  0.57020000  0.89190000  1
  C  C135  1  0.32170000  0.86920000  0.39190000  1
  C  C136  1  0.62380000  0.26700000  0.49400000  1
  C  C137  1  0.22700000  0.37020000  0.99400000  1
  C  C138  1  0.87290000  0.46750000  0.49540000  1
  C  C139  1  0.02790000  0.12250000  0.99540000  1
  C  C140  1  0.79130000  0.88220000  0.00530000  1
  C  C141  1  0.12310000  0.71400000  0.50530000  1
  C  C142  1  0.82160000  0.81510000  0.91490000  1
  C  C143  1  0.09980000  0.59330000  0.41490000  1
  C  C144  1  0.59460000  0.63950000  0.00870000  1
  C  C145  1  0.62350000  0.57770000  0.91800000  1
  C  C146  1  0.34030000  0.79450000  0.41800000  1
  C  C147  1  0.36920000  0.91410000  0.50870000  1
  C  C148  1  0.63760000  0.18550000  0.52310000  1
  C  C149  1  0.33760000  0.38550000  0.02310000  1
  C  C150  1  0.86100000  0.85850000  0.97450000  1
  C  C151  1  0.11600000  0.61350000  0.47450000  1
  H  H152  1  0.38550000  0.93170000  0.54880000  1
  H  H153  1  0.61710000  0.66330000  0.04880000  1
  H  H154  1  0.33780000  0.73030000  0.39570000  1
  H  H155  1  0.66540000  0.55790000  0.89570000  1
  H  H156  1  0.13580000  0.20460000  0.10700000  1
  H  H157  1  0.90240000  0.47120000  0.60700000  1
  H  H158  1  0.18730000  0.09210000  0.95460000  1
  H  H159  1  0.86250000  0.26730000  0.45460000  1
  H  H160  1  0.12460000  0.84400000  0.88920000  1
  H  H161  1  0.04520000  0.26460000  0.38920000  1
  H  H162  1  0.17970000  0.65900000  0.66810000  1
  H  H163  1  0.00910000  0.98840000  0.16810000  1
  H  H164  1  0.55170000  0.35530000  0.99980000  1
  H  H165  1  0.64450000  0.94810000  0.49980000  1
  H  H166  1  0.50110000  0.45210000  0.14820000  1
  H  H167  1  0.69610000  0.14710000  0.64820000  1
  H  H168  1  0.40580000  0.84320000  0.66540000  1
  H  H169  1  0.82220000  0.75960000  0.16540000  1
  H  H170  1  0.30580000  0.22630000  0.15110000  1
  H  H171  1  0.92480000  0.34530000  0.65110000  1
  H  H172  1  0.31970000  0.47400000  0.38590000  1
  H  H173  1  0.91190000  0.56620000  0.88590000  1
  H  H174  1  0.35520000  0.11570000  0.00510000  1
  H  H175  1  0.88940000  0.14990000  0.50510000  1
  H  H176  1  0.24800000  0.81600000  0.84440000  1
  H  H177  1  0.02840000  0.09640000  0.34440000  1
  H  H178  1  0.22780000  0.68930000  0.76670000  1
  H  H179  1  0.07740000  0.03890000  0.26670000  1
  H  H180  1  0.43730000  0.87360000  0.76290000  1
  H  H181  1  0.88930000  0.82560000  0.26290000  1
  H  H182  1  0.29280000  0.30330000  0.33890000  1
  H  H183  1  0.03560000  0.54610000  0.83890000  1
  H  H184  1  0.50600000  0.38780000  0.24140000  1
  H  H185  1  0.85360000  0.23540000  0.74140000  1
  H  H186  1  0.62330000  0.76010000  0.51520000  1
  H  H187  1  0.75510000  0.39190000  0.01520000  1
  H  H188  1  0.55980000  0.15860000  0.01140000  1
  H  H189  1  0.85280000  0.95160000  0.51140000  1
  H  H190  1  0.64420000  0.94540000  0.74600000  1
  H  H191  1  0.80060000  0.60180000  0.24600000  1
  H  H192  1  0.53470000  0.42650000  0.34020000  1
  H  H193  1  0.91370000  0.30550000  0.84020000  1
  H  H194  1  0.29570000  0.99320000  0.15550000  1
  H  H195  1  0.16230000  0.35980000  0.65550000  1
  H  H196  1  0.60350000  0.59450000  0.46420000  1
  H  H197  1  0.86970000  0.36070000  0.96420000  1
  H  H198  1  0.32570000  0.87320000  0.03810000  1
  H  H199  1  0.16490000  0.21240000  0.53810000  1
  H  H200  1  0.67430000  0.12680000  0.96190000  1
  H  H201  1  0.83510000  0.78760000  0.46190000  1
  H  H202  1  0.39650000  0.40550000  0.53580000  1
  H  H203  1  0.13030000  0.63930000  0.03580000  1
  H  H204  1  0.70430000  0.00680000  0.84450000  1
  H  H205  1  0.83770000  0.64020000  0.34450000  1
  H  H206  1  0.46530000  0.57350000  0.65980000  1
  H  H207  1  0.08630000  0.69450000  0.15980000  1
  H  H208  1  0.35580000  0.05460000  0.25400000  1
  H  H209  1  0.19940000  0.39820000  0.75400000  1
  H  H210  1  0.44020000  0.84140000  0.98860000  1
  H  H211  1  0.14720000  0.04840000  0.48860000  1
  H  H212  1  0.37670000  0.23990000  0.48480000  1
  H  H213  1  0.24490000  0.60810000  0.98480000  1
  H  H214  1  0.49400000  0.61220000  0.75860000  1
  H  H215  1  0.14640000  0.76460000  0.25860000  1
  H  H216  1  0.70720000  0.69670000  0.66110000  1
  H  H217  1  0.96440000  0.45390000  0.16110000  1
  H  H218  1  0.56270000  0.12640000  0.23710000  1
  H  H219  1  0.11070000  0.17440000  0.73710000  1
  H  H220  1  0.77220000  0.31070000  0.23330000  1
  H  H221  1  0.92260000  0.96110000  0.73330000  1
  H  H222  1  0.75200000  0.18400000  0.15560000  1
  H  H223  1  0.97160000  0.90360000  0.65560000  1
  H  H224  1  0.64480000  0.88430000  0.99490000  1
  H  H225  1  0.11060000  0.85010000  0.49490000  1
  H  H226  1  0.68030000  0.52600000  0.61410000  1
  H  H227  1  0.08810000  0.43380000  0.11410000  1
  H  H228  1  0.69420000  0.77370000  0.84890000  1
  H  H229  1  0.07520000  0.65470000  0.34890000  1
  H  H230  1  0.59420000  0.15680000  0.33460000  1
  H  H231  1  0.17780000  0.24040000  0.83460000  1
  H  H232  1  0.49890000  0.54790000  0.85180000  1
  H  H233  1  0.30390000  0.85290000  0.35180000  1
  H  H234  1  0.44830000  0.64470000  0.00020000  1
  H  H235  1  0.35550000  0.05190000  0.50020000  1
  H  H236  1  0.82030000  0.34100000  0.33190000  1
  H  H237  1  0.99090000  0.01160000  0.83190000  1
  H  H238  1  0.87540000  0.15600000  0.11080000  1
  H  H239  1  0.95480000  0.73540000  0.61080000  1
  H  H240  1  0.81270000  0.90790000  0.04540000  1
  H  H241  1  0.13750000  0.73270000  0.54540000  1
  H  H242  1  0.86420000  0.79540000  0.89300000  1
  H  H243  1  0.09760000  0.52880000  0.39300000  1
  H  H244  1  0.66220000  0.26970000  0.60430000  1
  H  H245  1  0.33460000  0.44210000  0.10430000  1
  H  H246  1  0.61450000  0.06830000  0.45120000  1
  H  H247  1  0.38290000  0.33670000  0.95120000  1
  N  N248  1  0.11290000  0.43720000  0.47210000  1
  N  N249  1  0.03490000  0.85920000  0.97210000  1
  N  N250  1  0.14770000  0.56050000  0.56260000  1
  N  N251  1  0.00210000  0.91490000  0.06260000  1
  N  N252  1  0.35840000  0.63670000  0.47290000  1
  N  N253  1  0.83620000  0.61450000  0.97290000  1
  N  N254  1  0.40230000  0.75920000  0.56390000  1
  N  N255  1  0.80470000  0.66160000  0.06390000  1
  N  N256  1  0.54360000  0.40600000  0.07800000  1
  N  N257  1  0.67200000  0.03440000  0.57800000  1
  N  N258  1  0.34760000  0.17310000  0.08250000  1
  N  N259  1  0.90940000  0.23490000  0.58250000  1
  N  N260  1  0.17280000  0.91970000  0.05830000  1
  N  N261  1  0.13860000  0.38550000  0.55830000  1
  N  N262  1  0.39870000  0.58540000  0.55830000  1
  N  N263  1  0.97290000  0.65960000  0.05830000  1
  N  N264  1  0.22170000  0.05170000  0.27060000  1
  N  N265  1  0.21890000  0.54890000  0.77060000  1
  N  N266  1  0.35610000  0.82400000  0.91110000  1
  N  N267  1  0.08710000  0.05500000  0.41110000  1
  N  N268  1  0.33500000  0.25460000  0.40680000  1
  N  N269  1  0.15220000  0.57180000  0.90680000  1
  N  N270  1  0.46950000  0.74790000  0.77100000  1
  N  N271  1  0.02310000  0.80150000  0.27100000  1
  N  N272  1  0.53050000  0.25210000  0.22900000  1
  N  N273  1  0.97690000  0.19850000  0.72900000  1
  N  N274  1  0.66500000  0.74540000  0.59320000  1
  N  N275  1  0.84780000  0.42820000  0.09320000  1
  N  N276  1  0.64390000  0.17600000  0.08890000  1
  N  N277  1  0.91290000  0.94500000  0.58890000  1
  N  N278  1  0.77830000  0.94830000  0.72940000  1
  N  N279  1  0.78110000  0.45110000  0.22940000  1
  N  N280  1  0.60130000  0.41460000  0.44170000  1
  N  N281  1  0.02710000  0.34040000  0.94170000  1
  N  N282  1  0.82720000  0.08030000  0.94170000  1
  N  N283  1  0.86140000  0.61450000  0.44170000  1
  N  N284  1  0.65240000  0.82690000  0.91750000  1
  N  N285  1  0.09060000  0.76510000  0.41750000  1
  N  N286  1  0.45640000  0.59400000  0.92200000  1
  N  N287  1  0.32800000  0.96560000  0.42200000  1
  N  N288  1  0.59770000  0.24080000  0.43610000  1
  N  N289  1  0.19530000  0.33840000  0.93610000  1
  N  N290  1  0.64160000  0.36330000  0.52710000  1
  N  N291  1  0.16380000  0.38550000  0.02710000  1
  N  N292  1  0.85230000  0.43950000  0.43740000  1
  N  N293  1  0.99790000  0.08510000  0.93740000  1
  N  N294  1  0.88710000  0.56280000  0.52790000  1
  N  N295  1  0.96510000  0.14080000  0.02790000  1
