# generated using pymatgen
data_ZnH12(C3O)8
_symmetry_space_group_name_H-M   'P 1'
_cell_length_a   10.19500000
_cell_length_b   18.53300000
_cell_length_c   21.34200000
_cell_angle_alpha   90.00000000
_cell_angle_beta   90.00000000
_cell_angle_gamma   102.96000000
_symmetry_Int_Tables_number   1
_chemical_formula_structural   ZnH12(C3O)8
_chemical_formula_sum   'Zn4 H48 C96 O32'
_cell_volume   3929.72256646
_cell_formula_units_Z   4
loop_
 _symmetry_equiv_pos_site_id
 _symmetry_equiv_pos_as_xyz
  1  'x, y, z'
loop_
 _atom_site_type_symbol
 _atom_site_label
 _atom_site_symmetry_multiplicity
 _atom_site_fract_x
 _atom_site_fract_y
 _atom_site_fract_z
 _atom_site_occupancy
  Zn  Zn0  1  0.65157000  0.21394000  0.34918000  1
  Zn  Zn1  1  0.65157000  0.71394000  0.15082000  1
  Zn  Zn2  1  0.34843000  0.28606000  0.84918000  1
  Zn  Zn3  1  0.34843000  0.78606000  0.65082000  1
  H  H4  1  0.98810000  0.54470000  0.28900000  1
  H  H5  1  0.98810000  0.04470000  0.21100000  1
  H  H6  1  0.96320000  0.52160000  0.88000000  1
  H  H7  1  0.96320000  0.02160000  0.62000000  1
  H  H8  1  0.89830000  0.72240000  0.80570000  1
  H  H9  1  0.89830000  0.22240000  0.69430000  1
  H  H10  1  0.89270000  0.40690000  0.28230000  1
  H  H11  1  0.89270000  0.90690000  0.21770000  1
  H  H12  1  0.87750000  0.04440000  0.35870000  1
  H  H13  1  0.87750000  0.54440000  0.14130000  1
  H  H14  1  0.84080000  0.85510000  0.76710000  1
  H  H15  1  0.84080000  0.35510000  0.73290000  1
  H  H16  1  0.81940000  0.57050000  0.95740000  1
  H  H17  1  0.81940000  0.07050000  0.54260000  1
  H  H18  1  0.72790000  0.62180000  0.82600000  1
  H  H19  1  0.72790000  0.12180000  0.67400000  1
  H  H20  1  0.72310000  0.47800000  0.44690000  1
  H  H21  1  0.72310000  0.97800000  0.05310000  1
  H  H22  1  0.70820000  0.60830000  0.47140000  1
  H  H23  1  0.70820000  0.10830000  0.02860000  1
  H  H24  1  0.62890000  0.48540000  0.81840000  1
  H  H25  1  0.62890000  0.98540000  0.68160000  1
  H  H26  1  0.59260000  0.18920000  0.98380000  1
  H  H27  1  0.59260000  0.68920000  0.51620000  1
  H  H28  1  0.40740000  0.31080000  0.48380000  1
  H  H29  1  0.40740000  0.81080000  0.01620000  1
  H  H30  1  0.37110000  0.01460000  0.31840000  1
  H  H31  1  0.37110000  0.51460000  0.18160000  1
  H  H32  1  0.29180000  0.89170000  0.97140000  1
  H  H33  1  0.29180000  0.39170000  0.52860000  1
  H  H34  1  0.27690000  0.02200000  0.94690000  1
  H  H35  1  0.27690000  0.52200000  0.55310000  1
  H  H36  1  0.27210000  0.87820000  0.32600000  1
  H  H37  1  0.27210000  0.37820000  0.17400000  1
  H  H38  1  0.18060000  0.92950000  0.45740000  1
  H  H39  1  0.18060000  0.42950000  0.04260000  1
  H  H40  1  0.15920000  0.64490000  0.26710000  1
  H  H41  1  0.15920000  0.14490000  0.23290000  1
  H  H42  1  0.12250000  0.45560000  0.85870000  1
  H  H43  1  0.12250000  0.95560000  0.64130000  1
  H  H44  1  0.10730000  0.09310000  0.78230000  1
  H  H45  1  0.10730000  0.59310000  0.71770000  1
  H  H46  1  0.10170000  0.77760000  0.30570000  1
  H  H47  1  0.10170000  0.27760000  0.19430000  1
  H  H48  1  0.03680000  0.97840000  0.38000000  1
  H  H49  1  0.03680000  0.47840000  0.12000000  1
  H  H50  1  0.01190000  0.95530000  0.78900000  1
  H  H51  1  0.01190000  0.45530000  0.71100000  1
  C  C52  1  0.99520000  0.99750000  0.41290000  1
  C  C53  1  0.99520000  0.49750000  0.08710000  1
  C  C54  1  0.97840000  0.83330000  0.25910000  1
  C  C55  1  0.97840000  0.33333333  0.24090000  1
  C  C56  1  0.96880000  0.40170000  0.26030000  1
  C  C57  1  0.96880000  0.90170000  0.23970000  1
  C  C58  1  0.96760000  0.51450000  0.97520000  1
  C  C59  1  0.96760000  0.01450000  0.52480000  1
  C  C60  1  0.93620000  0.96180000  0.76740000  1
  C  C61  1  0.93620000  0.46180000  0.73260000  1
  C  C62  1  0.92710000  0.53390000  0.75220000  1
  C  C63  1  0.92710000  0.03390000  0.74780000  1
  C  C64  1  0.90520000  0.67560000  0.79230000  1
  C  C65  1  0.90520000  0.17560000  0.70770000  1
  C  C66  1  0.89940000  0.03650000  0.40000000  1
  C  C67  1  0.89940000  0.53650000  0.10000000  1
  C  C68  1  0.86580000  0.26590000  0.25450000  1
  C  C69  1  0.86580000  0.76590000  0.24550000  1
  C  C70  1  0.86520000  0.55320000  0.98970000  1
  C  C71  1  0.86520000  0.05320000  0.51030000  1
  C  C72  1  0.83370000  0.90210000  0.75440000  1
  C  C73  1  0.83370000  0.40210000  0.74560000  1
  C  C74  1  0.83330000  0.06500000  0.44980000  1
  C  C75  1  0.83330000  0.56500000  0.05020000  1
  C  C76  1  0.81120000  0.54370000  0.78500000  1
  C  C77  1  0.81120000  0.04370000  0.71500000  1
  C  C78  1  0.80370000  0.61540000  0.80440000  1
  C  C79  1  0.80370000  0.11540000  0.69560000  1
  C  C80  1  0.73650000  0.11320000  0.43430000  1
  C  C81  1  0.73650000  0.61320000  0.06570000  1
  C  C82  1  0.71690000  0.41070000  0.77810000  1
  C  C83  1  0.71690000  0.91070000  0.72190000  1
  C  C84  1  0.70580000  0.47990000  0.79720000  1
  C  C85  1  0.70580000  0.97990000  0.70280000  1
  C  C86  1  0.64950000  0.33333333  0.43190000  1
  C  C87  1  0.64950000  0.83330000  0.06810000  1
  C  C88  1  0.63630000  0.46140000  0.46240000  1
  C  C89  1  0.63630000  0.96140000  0.03760000  1
  C  C90  1  0.62320000  0.59050000  0.48850000  1
  C  C91  1  0.62320000  0.09050000  0.01150000  1
  C  C92  1  0.60240000  0.34420000  0.79030000  1
  C  C93  1  0.60240000  0.84420000  0.70970000  1
  C  C94  1  0.57720000  0.38730000  0.46100000  1
  C  C95  1  0.57720000  0.88730000  0.03900000  1
  C  C96  1  0.56510000  0.51400000  0.48780000  1
  C  C97  1  0.56510000  0.01400000  0.01220000  1
  C  C98  1  0.55320000  0.13880000  0.98530000  1
  C  C99  1  0.55320000  0.63880000  0.51470000  1
  C  C100  1  0.44680000  0.36120000  0.48530000  1
  C  C101  1  0.44680000  0.86120000  0.01470000  1
  C  C102  1  0.43490000  0.98600000  0.98780000  1
  C  C103  1  0.43490000  0.48600000  0.51220000  1
  C  C104  1  0.42280000  0.11270000  0.96100000  1
  C  C105  1  0.42280000  0.61270000  0.53900000  1
  C  C106  1  0.39760000  0.15580000  0.29030000  1
  C  C107  1  0.39760000  0.65580000  0.20970000  1
  C  C108  1  0.37680000  0.90950000  0.98850000  1
  C  C109  1  0.37680000  0.40950000  0.51150000  1
  C  C110  1  0.36370000  0.03860000  0.96240000  1
  C  C111  1  0.36370000  0.53860000  0.53760000  1
  C  C112  1  0.35050000  0.16670000  0.93190000  1
  C  C113  1  0.35050000  0.66666667  0.56810000  1
  C  C114  1  0.29420000  0.02010000  0.29720000  1
  C  C115  1  0.29420000  0.52010000  0.20280000  1
  C  C116  1  0.28310000  0.08930000  0.27810000  1
  C  C117  1  0.28310000  0.58930000  0.22190000  1
  C  C118  1  0.26350000  0.38680000  0.93430000  1
  C  C119  1  0.26350000  0.88680000  0.56570000  1
  C  C120  1  0.19630000  0.88460000  0.30440000  1
  C  C121  1  0.19630000  0.38460000  0.19560000  1
  C  C122  1  0.18880000  0.95630000  0.28500000  1
  C  C123  1  0.18880000  0.45630000  0.21500000  1
  C  C124  1  0.16670000  0.43500000  0.94980000  1
  C  C125  1  0.16670000  0.93500000  0.55020000  1
  C  C126  1  0.16630000  0.59790000  0.25440000  1
  C  C127  1  0.16630000  0.09790000  0.24560000  1
  C  C128  1  0.13480000  0.94680000  0.48970000  1
  C  C129  1  0.13480000  0.44680000  0.01030000  1
  C  C130  1  0.13420000  0.23410000  0.75450000  1
  C  C131  1  0.13420000  0.73410000  0.74550000  1
  C  C132  1  0.10060000  0.46350000  0.90000000  1
  C  C133  1  0.10060000  0.96350000  0.60000000  1
  C  C134  1  0.09480000  0.82440000  0.29230000  1
  C  C135  1  0.09480000  0.32440000  0.20770000  1
  C  C136  1  0.07290000  0.96610000  0.25220000  1
  C  C137  1  0.07290000  0.46610000  0.24780000  1
  C  C138  1  0.06380000  0.53820000  0.26740000  1
  C  C139  1  0.06380000  0.03820000  0.23260000  1
  C  C140  1  0.03240000  0.98550000  0.47520000  1
  C  C141  1  0.03240000  0.48550000  0.02480000  1
  C  C142  1  0.03120000  0.09830000  0.76030000  1
  C  C143  1  0.03120000  0.59830000  0.73970000  1
  C  C144  1  0.02160000  0.66666667  0.75910000  1
  C  C145  1  0.02160000  0.16670000  0.74090000  1
  C  C146  1  0.00480000  0.50250000  0.91290000  1
  C  C147  1  0.00480000  0.00250000  0.58710000  1
  O  O148  1  0.86940000  0.70520000  0.26960000  1
  O  O149  1  0.86940000  0.20520000  0.23040000  1
  O  O150  1  0.77250000  0.33990000  0.44090000  1
  O  O151  1  0.77250000  0.83990000  0.05910000  1
  O  O152  1  0.77000000  0.27780000  0.28911000  1
  O  O153  1  0.77000000  0.77780000  0.21089000  1
  O  O154  1  0.76130000  0.15020000  0.38423000  1
  O  O155  1  0.76130000  0.65020000  0.11577000  1
  O  O156  1  0.64320000  0.11630000  0.47100000  1
  O  O157  1  0.64320000  0.61630000  0.02900000  1
  O  O158  1  0.61620000  0.28150000  0.77553000  1
  O  O159  1  0.61620000  0.78150000  0.72447000  1
  O  O160  1  0.57530000  0.28256000  0.39920000  1
  O  O161  1  0.57530000  0.78256000  0.10080000  1
  O  O162  1  0.50130000  0.14060000  0.31534000  1
  O  O163  1  0.50130000  0.64060000  0.18466000  1
  O  O164  1  0.49870000  0.35940000  0.81534000  1
  O  O165  1  0.49870000  0.85940000  0.68466000  1
  O  O166  1  0.42470000  0.21744000  0.89920000  1
  O  O167  1  0.42470000  0.71744000  0.60080000  1
  O  O168  1  0.38380000  0.21850000  0.27553000  1
  O  O169  1  0.38380000  0.71850000  0.22447000  1
  O  O170  1  0.35680000  0.38370000  0.97100000  1
  O  O171  1  0.35680000  0.88370000  0.52900000  1
  O  O172  1  0.23870000  0.34980000  0.88423000  1
  O  O173  1  0.23870000  0.84980000  0.61577000  1
  O  O174  1  0.23000000  0.22220000  0.78911000  1
  O  O175  1  0.23000000  0.72220000  0.71089000  1
  O  O176  1  0.22750000  0.16010000  0.94090000  1
  O  O177  1  0.22750000  0.66010000  0.55910000  1
  O  O178  1  0.13060000  0.79480000  0.76960000  1
  O  O179  1  0.13060000  0.29480000  0.73040000  1
