# generated using pymatgen
data_DyH4C12(NO3)2
_symmetry_space_group_name_H-M   'P 1'
_cell_length_a   10.81716203
_cell_length_b   10.81716203
_cell_length_c   18.87360000
_cell_angle_alpha   74.42471202
_cell_angle_beta   74.42471202
_cell_angle_gamma   63.68894048
_symmetry_Int_Tables_number   1
_chemical_formula_structural   DyH4C12(NO3)2
_chemical_formula_sum   'Dy4 H16 C48 N8 O24'
_cell_volume   1878.13823615
_cell_formula_units_Z   4
loop_
 _symmetry_equiv_pos_site_id
 _symmetry_equiv_pos_as_xyz
  1  'x, y, z'
loop_
 _atom_site_type_symbol
 _atom_site_label
 _atom_site_symmetry_multiplicity
 _atom_site_fract_x
 _atom_site_fract_y
 _atom_site_fract_z
 _atom_site_occupancy
  C  C0  1  0.26950000  0.93530000  0.92790000  1
  C  C1  1  0.93530000  0.26950000  0.42790000  1
  C  C2  1  0.26740000  0.96400000  0.47300000  1
  C  C3  1  0.96400000  0.26740000  0.97300000  1
  C  C4  1  0.18970000  0.04790000  0.20820000  1
  C  C5  1  0.04790000  0.18970000  0.70820000  1
  C  C6  1  0.41400000  0.92480000  0.89020000  1
  C  C7  1  0.92480000  0.41400000  0.39020000  1
  C  C8  1  0.38960000  0.98040000  0.48690000  1
  C  C9  1  0.98040000  0.38960000  0.98690000  1
  C  C10  1  0.32560000  0.06400000  0.17390000  1
  C  C11  1  0.06400000  0.32560000  0.67390000  1
  C  C12  1  0.45490000  0.94370000  0.81090000  1
  C  C13  1  0.94370000  0.45490000  0.31090000  1
  C  C14  1  0.50660000  0.90660000  0.93440000  1
  C  C15  1  0.90660000  0.50660000  0.43440000  1
  C  C16  1  0.36880000  0.05120000  0.54340000  1
  C  C17  1  0.05120000  0.36880000  0.04340000  1
  C  C18  1  0.52330000  0.92550000  0.44340000  1
  C  C19  1  0.92550000  0.52330000  0.94340000  1
  C  C20  1  0.36510000  0.08830000  0.09660000  1
  C  C21  1  0.08830000  0.36510000  0.59660000  1
  C  C22  1  0.41370000  0.05130000  0.21910000  1
  C  C23  1  0.05130000  0.41370000  0.71910000  1
  C  C24  1  0.58630000  0.94870000  0.78090000  1
  C  C25  1  0.94870000  0.58630000  0.28090000  1
  C  C26  1  0.63490000  0.91170000  0.90340000  1
  C  C27  1  0.91170000  0.63490000  0.40340000  1
  C  C28  1  0.47670000  0.07450000  0.55660000  1
  C  C29  1  0.07450000  0.47670000  0.05660000  1
  C  C30  1  0.63120000  0.94880000  0.45660000  1
  C  C31  1  0.94880000  0.63120000  0.95660000  1
  C  C32  1  0.49340000  0.09340000  0.06560000  1
  C  C33  1  0.09340000  0.49340000  0.56560000  1
  C  C34  1  0.54510000  0.05630000  0.18910000  1
  C  C35  1  0.05630000  0.54510000  0.68910000  1
  C  C36  1  0.67440000  0.93600000  0.82610000  1
  C  C37  1  0.93600000  0.67440000  0.32610000  1
  C  C38  1  0.61040000  0.01960000  0.51310000  1
  C  C39  1  0.01960000  0.61040000  0.01310000  1
  C  C40  1  0.58600000  0.07520000  0.10980000  1
  C  C41  1  0.07520000  0.58600000  0.60980000  1
  C  C42  1  0.81030000  0.95210000  0.79180000  1
  C  C43  1  0.95210000  0.81030000  0.29180000  1
  C  C44  1  0.73260000  0.03600000  0.52700000  1
  C  C45  1  0.03600000  0.73260000  0.02700000  1
  C  C46  1  0.73050000  0.06470000  0.07210000  1
  C  C47  1  0.06470000  0.73050000  0.57210000  1
  Dy  Dy48  1  0.06641000  0.93539000  0.10205000  1
  Dy  Dy49  1  0.93539000  0.06641000  0.60205000  1
  Dy  Dy50  1  0.93359000  0.06461000  0.89795000  1
  Dy  Dy51  1  0.06461000  0.93359000  0.39795000  1
  H  H52  1  0.27890000  0.08450000  0.57360000  1
  H  H53  1  0.08450000  0.27890000  0.07360000  1
  H  H54  1  0.48070000  0.89010000  0.98720000  1
  H  H55  1  0.89010000  0.48070000  0.48720000  1
  H  H56  1  0.30330000  0.10130000  0.06520000  1
  H  H57  1  0.10130000  0.30330000  0.56520000  1
  H  H58  1  0.38440000  0.03900000  0.27170000  1
  H  H59  1  0.03900000  0.38440000  0.77170000  1
  H  H60  1  0.61560000  0.96100000  0.72830000  1
  H  H61  1  0.96100000  0.61560000  0.22830000  1
  H  H62  1  0.69670000  0.89870000  0.93480000  1
  H  H63  1  0.89870000  0.69670000  0.43480000  1
  H  H64  1  0.51930000  0.10990000  0.01280000  1
  H  H65  1  0.10990000  0.51930000  0.51280000  1
  H  H66  1  0.72110000  0.91550000  0.42640000  1
  H  H67  1  0.91550000  0.72110000  0.92640000  1
  N  N68  1  0.37580000  0.95820000  0.76130000  1
  N  N69  1  0.95820000  0.37580000  0.26130000  1
  N  N70  1  0.55530000  0.85070000  0.38850000  1
  N  N71  1  0.85070000  0.55530000  0.88850000  1
  N  N72  1  0.44470000  0.14930000  0.61150000  1
  N  N73  1  0.14930000  0.44470000  0.11150000  1
  N  N74  1  0.62420000  0.04180000  0.23870000  1
  N  N75  1  0.04180000  0.62420000  0.73870000  1
  O  O76  1  0.24890000  0.90210000  0.99810000  1
  O  O77  1  0.90210000  0.24890000  0.49810000  1
  O  O78  1  0.17710000  0.97630000  0.88820000  1
  O  O79  1  0.97630000  0.17710000  0.38820000  1
  O  O80  1  0.15050000  0.00750000  0.51410000  1
  O  O81  1  0.00750000  0.15050000  0.01410000  1
  O  O82  1  0.11090000  0.06370000  0.16420000  1
  O  O83  1  0.06370000  0.11090000  0.66420000  1
  O  O84  1  0.16030000  0.01790000  0.27810000  1
  O  O85  1  0.01790000  0.16030000  0.77810000  1
  O  O86  1  0.28520000  0.90800000  0.41820000  1
  O  O87  1  0.90800000  0.28520000  0.91820000  1
  O  O88  1  0.71480000  0.09200000  0.58180000  1
  O  O89  1  0.09200000  0.71480000  0.08180000  1
  O  O90  1  0.83970000  0.98210000  0.72190000  1
  O  O91  1  0.98210000  0.83970000  0.22190000  1
  O  O92  1  0.88910000  0.93630000  0.83580000  1
  O  O93  1  0.93630000  0.88910000  0.33580000  1
  O  O94  1  0.84950000  0.99250000  0.48590000  1
  O  O95  1  0.99250000  0.84950000  0.98590000  1
  O  O96  1  0.82290000  0.02370000  0.11180000  1
  O  O97  1  0.02370000  0.82290000  0.61180000  1
  O  O98  1  0.75110000  0.09790000  0.00190000  1
  O  O99  1  0.09790000  0.75110000  0.50190000  1
