# generated using pymatgen
data_CdH28C22(SN5)2
_symmetry_space_group_name_H-M   'P 1'
_cell_length_a   11.12840000
_cell_length_b   15.34553257
_cell_length_c   15.34553257
_cell_angle_alpha   114.35256476
_cell_angle_beta   103.98863455
_cell_angle_gamma   103.98863455
_symmetry_Int_Tables_number   1
_chemical_formula_structural   CdH28C22(SN5)2
_chemical_formula_sum   'Cd3 H84 C66 S6 N30'
_cell_volume   2136.87179848
_cell_formula_units_Z   3
loop_
 _symmetry_equiv_pos_site_id
 _symmetry_equiv_pos_as_xyz
  1  'x, y, z'
loop_
 _atom_site_type_symbol
 _atom_site_label
 _atom_site_symmetry_multiplicity
 _atom_site_fract_x
 _atom_site_fract_y
 _atom_site_fract_z
 _atom_site_occupancy
  C  C0  1  0.26524000  0.61226000  0.41366000  1
  C  C1  1  0.35436000  0.43042000  0.61066000  1
  C  C2  1  0.89813000  0.78261000  0.26558000  1
  C  C3  1  0.76490000  0.29286000  0.76294000  1
  C  C4  1  0.81871000  0.83201000  0.24012000  1
  C  C5  1  0.18420000  0.32435000  0.79525000  1
  C  C6  1  0.69141000  0.65530000  0.48683000  1
  C  C7  1  0.85985000  0.47090000  0.67565000  1
  C  C8  1  0.48627000  0.91247000  0.25564000  1
  C  C9  1  0.03611000  0.83153000  0.34470000  1
  C  C10  1  0.47204000  0.47008000  0.70714000  1
  C  C11  1  0.65298000  0.80140000  0.38774000  1
  C  C12  1  0.80530000  0.64984000  0.54716000  1
  C  C13  1  0.74370000  0.38934000  0.81976000  1
  C  C14  1  0.17016000  0.93642000  0.27776000  1
  C  C15  1  0.14842000  0.41366000  0.80140000  1
  C  C16  1  0.84509000  0.94381000  0.28066000  1
  C  C17  1  0.99804000  0.76294000  0.47008000  1
  C  C18  1  0.15546000  0.89732000  0.35016000  1
  C  C19  1  0.07606000  0.81976000  0.43042000  1
  C  C20  1  0.63255000  0.73442000  0.51703000  1
  C  C21  1  0.61105000  0.79525000  0.47090000  1
  C  C22  1  0.88448000  0.51703000  0.78261000  1
  C  C23  1  0.79542000  0.48683000  0.83153000  1
  C  C24  1  0.57859000  0.75988000  0.59189000  1
  C  C25  1  0.89240000  0.72224000  0.65866000  1
  C  C26  1  0.56443000  0.71934000  0.66315000  1
  C  C27  1  0.90128000  0.33685000  0.05619000  1
  C  C28  1  0.23063000  0.74436000  0.65683000  1
  C  C29  1  0.23374000  0.34134000  0.06358000  1
  C  C30  1  0.01330000  0.59189000  0.83201000  1
  C  C31  1  0.57380000  0.34317000  0.08753000  1
  C  C32  1  0.74186000  0.54716000  0.89732000  1
  C  C33  1  0.25814000  0.45284000  0.10268000  1
  C  C34  1  0.42620000  0.65683000  0.91247000  1
  C  C35  1  0.98670000  0.40811000  0.16799000  1
  C  C36  1  0.76626000  0.65866000  0.93642000  1
  C  C37  1  0.76937000  0.25564000  0.34317000  1
  C  C38  1  0.09872000  0.66315000  0.94381000  1
  C  C39  1  0.43557000  0.28066000  0.33685000  1
  C  C40  1  0.10760000  0.27776000  0.34134000  1
  C  C41  1  0.42141000  0.24012000  0.40811000  1
  C  C42  1  0.20458000  0.51317000  0.16847000  1
  C  C43  1  0.11552000  0.48297000  0.21739000  1
  C  C44  1  0.38895000  0.20475000  0.52910000  1
  C  C45  1  0.36745000  0.26558000  0.48297000  1
  C  C46  1  0.92394000  0.18024000  0.56958000  1
  C  C47  1  0.84454000  0.10268000  0.64984000  1
  C  C48  1  0.00196000  0.23706000  0.52992000  1
  C  C49  1  0.15491000  0.05619000  0.71934000  1
  C  C50  1  0.85158000  0.58634000  0.19860000  1
  C  C51  1  0.82984000  0.06358000  0.72224000  1
  C  C52  1  0.25630000  0.61066000  0.18024000  1
  C  C53  1  0.19470000  0.35016000  0.45284000  1
  C  C54  1  0.34702000  0.19860000  0.61226000  1
  C  C55  1  0.52796000  0.52992000  0.29286000  1
  C  C56  1  0.96389000  0.16847000  0.65530000  1
  C  C57  1  0.51373000  0.08753000  0.74436000  1
  C  C58  1  0.14015000  0.52910000  0.32435000  1
  C  C59  1  0.30859000  0.34470000  0.51317000  1
  C  C60  1  0.81580000  0.67565000  0.20475000  1
  C  C61  1  0.18129000  0.16799000  0.75988000  1
  C  C62  1  0.23510000  0.70714000  0.23706000  1
  C  C63  1  0.10187000  0.21739000  0.73442000  1
  C  C64  1  0.64564000  0.56958000  0.38934000  1
  C  C65  1  0.73476000  0.38774000  0.58634000  1
  Cd  Cd66  1  1.00000000  0.50000000  0.50000000  1
  Cd  Cd67  1  0.50000000  1.00000000  0.50000000  1
  Cd  Cd68  1  0.50000000  0.50000000  1.00000000  1
  H  H69  1  0.33360000  0.63090000  0.38830000  1
  H  H70  1  0.29690000  0.58740000  0.46000000  1
  H  H71  1  0.83890000  0.30870000  0.74170000  1
  H  H72  1  0.31600000  0.75730000  0.29790000  1
  H  H73  1  0.78560000  0.26440000  0.80790000  1
  H  H74  1  0.36870000  0.23120000  0.85930000  1
  H  H75  1  0.57400000  0.77820000  0.32730000  1
  H  H76  1  0.09130000  0.89480000  0.21330000  1
  H  H77  1  0.24670000  0.67270000  0.45090000  1
  H  H78  1  0.53020000  0.43300000  0.69130000  1
  H  H79  1  0.70270000  0.75740000  0.36910000  1
  H  H80  1  0.05470000  0.38830000  0.75740000  1
  H  H81  1  0.01810000  0.70210000  0.45940000  1
  H  H82  1  0.90280000  0.74170000  0.43300000  1
  H  H83  1  0.24940000  0.93170000  0.26370000  1
  H  H84  1  0.27900000  0.53620000  0.65920000  1
  H  H85  1  0.87800000  0.96620000  0.23730000  1
  H  H86  1  0.44130000  0.45940000  0.75730000  1
  H  H87  1  0.61980000  0.34080000  0.87700000  1
  H  H88  1  0.20420000  0.45090000  0.77820000  1
  H  H89  1  0.76260000  0.95460000  0.28010000  1
  H  H90  1  0.52120000  0.54350000  0.73560000  1
  H  H91  1  0.56080000  0.64890000  0.63270000  1
  H  H92  1  0.70950000  0.87260000  0.41260000  1
  H  H93  1  0.17090000  0.30080000  0.99180000  1
  H  H94  1  0.91180000  0.27110000  0.03380000  1
  H  H95  1  0.17910000  0.00820000  0.30900000  1
  H  H96  1  0.16310000  0.46000000  0.87260000  1
  H  H97  1  0.91190000  0.98380000  0.35110000  1
  H  H98  1  0.02230000  0.80790000  0.54350000  1
  H  H99  1  0.80800000  0.32550000  0.04540000  1
  H  H100  1  0.92810000  0.36730000  0.01620000  1
  H  H101  1  0.87010000  0.69100000  0.69920000  1
  H  H102  1  0.48250000  0.71990000  0.67450000  1
  H  H103  1  0.13750000  0.62810000  0.76880000  1
  H  H104  1  0.31770000  0.33200000  0.06830000  1
  H  H105  1  0.98570000  0.73630000  0.66800000  1
  H  H106  1  0.25720000  0.87700000  0.53620000  1
  H  H107  1  0.19650000  0.31850000  0.10520000  1
  H  H108  1  0.87800000  0.78670000  0.68150000  1
  H  H109  1  0.49060000  0.85930000  0.62810000  1
  H  H110  1  0.64070000  0.76270000  0.72890000  1
  H  H111  1  0.35930000  0.23730000  0.27110000  1
  H  H112  1  0.50940000  0.14070000  0.37190000  1
  H  H113  1  0.12200000  0.21330000  0.31850000  1
  H  H114  1  0.80350000  0.68150000  0.89480000  1
  H  H115  1  0.74280000  0.12300000  0.46380000  1
  H  H116  1  0.01430000  0.26370000  0.33200000  1
  H  H117  1  0.68230000  0.66800000  0.93170000  1
  H  H118  1  0.86250000  0.37190000  0.23120000  1
  H  H119  1  0.51750000  0.28010000  0.32550000  1
  H  H120  1  0.12990000  0.30900000  0.30080000  1
  H  H121  1  0.07190000  0.63270000  0.98380000  1
  H  H122  1  0.19200000  0.67450000  0.95460000  1
  H  H123  1  0.97770000  0.19210000  0.45650000  1
  H  H124  1  0.08810000  0.01620000  0.64890000  1
  H  H125  1  0.83690000  0.54000000  0.12740000  1
  H  H126  1  0.82090000  0.99180000  0.69100000  1
  H  H127  1  0.08820000  0.72890000  0.96620000  1
  H  H128  1  0.82910000  0.69920000  0.00820000  1
  H  H129  1  0.29050000  0.12740000  0.58740000  1
  H  H130  1  0.43920000  0.35110000  0.36730000  1
  H  H131  1  0.47880000  0.45650000  0.26440000  1
  H  H132  1  0.23740000  0.04540000  0.71990000  1
  H  H133  1  0.79580000  0.54910000  0.22180000  1
  H  H134  1  0.38020000  0.65920000  0.12300000  1
  H  H135  1  0.55870000  0.54060000  0.24270000  1
  H  H136  1  0.12200000  0.03380000  0.76270000  1
  H  H137  1  0.72100000  0.46380000  0.34080000  1
  H  H138  1  0.75060000  0.06830000  0.73630000  1
  H  H139  1  0.09720000  0.25830000  0.56700000  1
  H  H140  1  0.98190000  0.29790000  0.54060000  1
  H  H141  1  0.94530000  0.61170000  0.24260000  1
  H  H142  1  0.29730000  0.24260000  0.63090000  1
  H  H143  1  0.46980000  0.56700000  0.30870000  1
  H  H144  1  0.75330000  0.32730000  0.54910000  1
  H  H145  1  0.90870000  0.10520000  0.78670000  1
  H  H146  1  0.42600000  0.22180000  0.67270000  1
  H  H147  1  0.63130000  0.76880000  0.14070000  1
  H  H148  1  0.21440000  0.73560000  0.19210000  1
  H  H149  1  0.68400000  0.24270000  0.70210000  1
  H  H150  1  0.16110000  0.69130000  0.25830000  1
  H  H151  1  0.70310000  0.41260000  0.54000000  1
  H  H152  1  0.66640000  0.36910000  0.61170000  1
  N  N153  1  0.82799000  0.56708000  0.48931000  1
  N  N154  1  0.30170000  0.24339000  0.83109000  1
  N  N155  1  0.27077000  0.48005000  0.60642000  1
  N  N156  1  0.96683000  0.51365000  0.65984000  1
  N  N157  1  0.30699000  0.34016000  0.85381000  1
  N  N158  1  0.66435000  0.39358000  0.87363000  1
  N  N159  1  0.16820000  0.65572000  0.61524000  1
  N  N160  1  0.51248000  0.95952000  0.34428000  1
  N  N161  1  0.05831000  0.58770000  0.75661000  1
  N  N162  1  0.20928000  0.87363000  0.48005000  1
  N  N163  1  0.26091000  0.92223000  0.43292000  1
  N  N164  1  0.54682000  0.85381000  0.51365000  1
  N  N165  1  0.66132000  0.48931000  0.92223000  1
  N  N166  1  0.52939000  0.83109000  0.58770000  1
  N  N167  1  0.55296000  0.38476000  0.04048000  1
  N  N168  1  0.44704000  0.61524000  0.95952000  1
  N  N169  1  0.47061000  0.16891000  0.41230000  1
  N  N170  1  0.33868000  0.51069000  0.07777000  1
  N  N171  1  0.45318000  0.14619000  0.48635000  1
  N  N172  1  0.73909000  0.07777000  0.56708000  1
  N  N173  1  0.79072000  0.12637000  0.51995000  1
  N  N174  1  0.94169000  0.41230000  0.24339000  1
  N  N175  1  0.48752000  0.04048000  0.65572000  1
  N  N176  1  0.83180000  0.34428000  0.38476000  1
  N  N177  1  0.33565000  0.60642000  0.12637000  1
  N  N178  1  0.69301000  0.65984000  0.14619000  1
  N  N179  1  0.03317000  0.48635000  0.34016000  1
  N  N180  1  0.72923000  0.51995000  0.39358000  1
  N  N181  1  0.69830000  0.75661000  0.16891000  1
  N  N182  1  0.17201000  0.43292000  0.51069000  1
  S  S183  1  0.54874000  0.15221000  0.86829000  1
  S  S184  1  0.68045000  0.13171000  0.28392000  1
  S  S185  1  0.60347000  0.28392000  0.15221000  1
  S  S186  1  0.39653000  0.71608000  0.84779000  1
  S  S187  1  0.31955000  0.86829000  0.71608000  1
  S  S188  1  0.45126000  0.84779000  0.13171000  1
