# generated using pymatgen
data_NdH9(C3O)6
_symmetry_space_group_name_H-M   'P 1'
_cell_length_a   12.88370000
_cell_length_b   18.85750000
_cell_length_c   21.81470000
_cell_angle_alpha   90.00000000
_cell_angle_beta   90.00000000
_cell_angle_gamma   90.00000000
_symmetry_Int_Tables_number   1
_chemical_formula_structural   NdH9(C3O)6
_chemical_formula_sum   'Nd8 H72 C144 O48'
_cell_volume   5299.97675523
_cell_formula_units_Z   8
loop_
 _symmetry_equiv_pos_site_id
 _symmetry_equiv_pos_as_xyz
  1  'x, y, z'
loop_
 _atom_site_type_symbol
 _atom_site_label
 _atom_site_symmetry_multiplicity
 _atom_site_fract_x
 _atom_site_fract_y
 _atom_site_fract_z
 _atom_site_occupancy
  Nd  Nd0  1  0.24718000  0.00533000  0.25000000  1
  Nd  Nd1  1  0.65527000  0.21465000  0.75000000  1
  Nd  Nd2  1  0.15527000  0.28535000  0.25000000  1
  Nd  Nd3  1  0.74718000  0.49467000  0.75000000  1
  Nd  Nd4  1  0.25282000  0.50533000  0.25000000  1
  Nd  Nd5  1  0.84473000  0.71465000  0.75000000  1
  Nd  Nd6  1  0.34473000  0.78535000  0.25000000  1
  Nd  Nd7  1  0.75282000  0.99467000  0.75000000  1
  H  H8  1  0.36770000  0.01390000  0.09260000  1
  H  H9  1  0.36770000  0.01390000  0.40740000  1
  H  H10  1  0.11530000  0.01530000  0.52470000  1
  H  H11  1  0.11530000  0.01530000  0.97530000  1
  H  H12  1  0.18910000  0.03040000  0.06940000  1
  H  H13  1  0.18910000  0.03040000  0.43060000  1
  H  H14  1  0.98920000  0.05490000  0.60480000  1
  H  H15  1  0.98920000  0.05490000  0.89520000  1
  H  H16  1  0.35790000  0.10200000  0.00670000  1
  H  H17  1  0.35790000  0.10200000  0.49330000  1
  H  H18  1  0.42120000  0.14500000  0.58490000  1
  H  H19  1  0.42120000  0.14500000  0.91510000  1
  H  H20  1  0.05490000  0.22310000  0.08690000  1
  H  H21  1  0.05490000  0.22310000  0.41310000  1
  H  H22  1  0.42730000  0.23630000  0.50600000  1
  H  H23  1  0.42730000  0.23630000  0.99400000  1
  H  H24  1  0.84260000  0.24310000  0.58540000  1
  H  H25  1  0.84260000  0.24310000  0.91460000  1
  H  H26  1  0.34260000  0.25690000  0.08540000  1
  H  H27  1  0.34260000  0.25690000  0.41460000  1
  H  H28  1  0.92730000  0.26370000  0.00600000  1
  H  H29  1  0.92730000  0.26370000  0.49400000  1
  H  H30  1  0.55490000  0.27690000  0.58690000  1
  H  H31  1  0.55490000  0.27690000  0.91310000  1
  H  H32  1  0.92120000  0.35500000  0.08490000  1
  H  H33  1  0.92120000  0.35500000  0.41510000  1
  H  H34  1  0.85790000  0.39800000  0.50670000  1
  H  H35  1  0.85790000  0.39800000  0.99330000  1
  H  H36  1  0.48920000  0.44510000  0.10480000  1
  H  H37  1  0.48920000  0.44510000  0.39520000  1
  H  H38  1  0.68910000  0.46960000  0.56940000  1
  H  H39  1  0.68910000  0.46960000  0.93060000  1
  H  H40  1  0.61530000  0.48470000  0.02470000  1
  H  H41  1  0.61530000  0.48470000  0.47530000  1
  H  H42  1  0.86770000  0.48610000  0.59260000  1
  H  H43  1  0.86770000  0.48610000  0.90740000  1
  H  H44  1  0.13230000  0.51390000  0.09260000  1
  H  H45  1  0.13230000  0.51390000  0.40740000  1
  H  H46  1  0.38470000  0.51530000  0.52470000  1
  H  H47  1  0.38470000  0.51530000  0.97530000  1
  H  H48  1  0.31090000  0.53040000  0.06940000  1
  H  H49  1  0.31090000  0.53040000  0.43060000  1
  H  H50  1  0.51080000  0.55490000  0.60480000  1
  H  H51  1  0.51080000  0.55490000  0.89520000  1
  H  H52  1  0.14210000  0.60200000  0.00670000  1
  H  H53  1  0.14210000  0.60200000  0.49330000  1
  H  H54  1  0.07880000  0.64500000  0.58490000  1
  H  H55  1  0.07880000  0.64500000  0.91510000  1
  H  H56  1  0.44510000  0.72310000  0.08690000  1
  H  H57  1  0.44510000  0.72310000  0.41310000  1
  H  H58  1  0.07270000  0.73630000  0.50600000  1
  H  H59  1  0.07270000  0.73630000  0.99400000  1
  H  H60  1  0.65740000  0.74310000  0.58540000  1
  H  H61  1  0.65740000  0.74310000  0.91460000  1
  H  H62  1  0.15740000  0.75690000  0.08540000  1
  H  H63  1  0.15740000  0.75690000  0.41460000  1
  H  H64  1  0.57270000  0.76370000  0.00600000  1
  H  H65  1  0.57270000  0.76370000  0.49400000  1
  H  H66  1  0.94510000  0.77690000  0.58690000  1
  H  H67  1  0.94510000  0.77690000  0.91310000  1
  H  H68  1  0.57880000  0.85500000  0.08490000  1
  H  H69  1  0.57880000  0.85500000  0.41510000  1
  H  H70  1  0.64210000  0.89800000  0.50670000  1
  H  H71  1  0.64210000  0.89800000  0.99330000  1
  H  H72  1  0.01080000  0.94510000  0.10480000  1
  H  H73  1  0.01080000  0.94510000  0.39520000  1
  H  H74  1  0.81090000  0.96960000  0.56940000  1
  H  H75  1  0.81090000  0.96960000  0.93060000  1
  H  H76  1  0.88470000  0.98470000  0.02470000  1
  H  H77  1  0.88470000  0.98470000  0.47530000  1
  H  H78  1  0.63230000  0.98610000  0.59260000  1
  H  H79  1  0.63230000  0.98610000  0.90740000  1
  C  C80  1  0.57760000  0.00960000  0.57170000  1
  C  C81  1  0.57760000  0.00960000  0.92830000  1
  C  C82  1  0.45800000  0.01740000  0.01510000  1
  C  C83  1  0.45800000  0.01740000  0.48490000  1
  C  C84  1  0.10050000  0.05710000  0.50190000  1
  C  C85  1  0.10050000  0.05710000  0.99810000  1
  C  C86  1  0.14610000  0.06660000  0.05300000  1
  C  C87  1  0.14610000  0.06660000  0.44700000  1
  C  C88  1  0.53450000  0.06950000  0.59690000  1
  C  C89  1  0.53450000  0.06950000  0.90310000  1
  C  C90  1  0.41420000  0.07840000  0.51280000  1
  C  C91  1  0.41420000  0.07840000  0.98720000  1
  C  C92  1  0.97700000  0.09690000  0.58180000  1
  C  C93  1  0.97700000  0.09690000  0.91820000  1
  C  C94  1  0.57720000  0.09830000  0.65550000  1
  C  C95  1  0.57720000  0.09830000  0.84450000  1
  C  C96  1  0.45140000  0.10390000  0.56710000  1
  C  C97  1  0.45140000  0.10390000  0.93290000  1
  C  C98  1  0.03150000  0.10760000  0.52620000  1
  C  C99  1  0.03150000  0.10760000  0.97380000  1
  C  C100  1  0.13110000  0.12940000  0.08630000  1
  C  C101  1  0.13110000  0.12940000  0.41370000  1
  C  C102  1  0.84610000  0.13000000  0.66120000  1
  C  C103  1  0.84610000  0.13000000  0.83880000  1
  C  C104  1  0.18360000  0.13730000  0.14810000  1
  C  C105  1  0.18360000  0.13730000  0.35190000  1
  C  C106  1  0.90730000  0.14560000  0.60330000  1
  C  C107  1  0.90730000  0.14560000  0.89670000  1
  C  C108  1  0.01240000  0.17070000  0.00830000  1
  C  C109  1  0.01240000  0.17070000  0.49170000  1
  C  C110  1  0.06510000  0.18060000  0.06420000  1
  C  C111  1  0.06510000  0.18060000  0.43580000  1
  C  C112  1  0.88990000  0.20880000  0.57000000  1
  C  C113  1  0.88990000  0.20880000  0.93000000  1
  C  C114  1  0.94040000  0.22100000  0.51590000  1
  C  C115  1  0.94040000  0.22100000  0.98410000  1
  C  C116  1  0.44040000  0.27900000  0.01590000  1
  C  C117  1  0.44040000  0.27900000  0.48410000  1
  C  C118  1  0.38990000  0.29120000  0.07000000  1
  C  C119  1  0.38990000  0.29120000  0.43000000  1
  C  C120  1  0.56510000  0.31940000  0.56420000  1
  C  C121  1  0.56510000  0.31940000  0.93580000  1
  C  C122  1  0.51240000  0.32930000  0.50830000  1
  C  C123  1  0.51240000  0.32930000  0.99170000  1
  C  C124  1  0.40730000  0.35440000  0.10330000  1
  C  C125  1  0.40730000  0.35440000  0.39670000  1
  C  C126  1  0.68360000  0.36270000  0.64810000  1
  C  C127  1  0.68360000  0.36270000  0.85190000  1
  C  C128  1  0.34610000  0.37000000  0.16120000  1
  C  C129  1  0.34610000  0.37000000  0.33880000  1
  C  C130  1  0.63110000  0.37060000  0.58630000  1
  C  C131  1  0.63110000  0.37060000  0.91370000  1
  C  C132  1  0.53150000  0.39240000  0.02620000  1
  C  C133  1  0.53150000  0.39240000  0.47380000  1
  C  C134  1  0.95140000  0.39610000  0.06710000  1
  C  C135  1  0.95140000  0.39610000  0.43290000  1
  C  C136  1  0.07720000  0.40170000  0.15550000  1
  C  C137  1  0.07720000  0.40170000  0.34450000  1
  C  C138  1  0.47700000  0.40310000  0.08180000  1
  C  C139  1  0.47700000  0.40310000  0.41820000  1
  C  C140  1  0.91420000  0.42160000  0.01280000  1
  C  C141  1  0.91420000  0.42160000  0.48720000  1
  C  C142  1  0.03450000  0.43050000  0.09690000  1
  C  C143  1  0.03450000  0.43050000  0.40310000  1
  C  C144  1  0.64610000  0.43340000  0.55300000  1
  C  C145  1  0.64610000  0.43340000  0.94700000  1
  C  C146  1  0.60050000  0.44290000  0.00190000  1
  C  C147  1  0.60050000  0.44290000  0.49810000  1
  C  C148  1  0.95800000  0.48260000  0.51510000  1
  C  C149  1  0.95800000  0.48260000  0.98490000  1
  C  C150  1  0.07760000  0.49040000  0.07170000  1
  C  C151  1  0.07760000  0.49040000  0.42830000  1
  C  C152  1  0.92240000  0.50960000  0.57170000  1
  C  C153  1  0.92240000  0.50960000  0.92830000  1
  C  C154  1  0.04200000  0.51740000  0.01510000  1
  C  C155  1  0.04200000  0.51740000  0.48490000  1
  C  C156  1  0.39950000  0.55710000  0.50190000  1
  C  C157  1  0.39950000  0.55710000  0.99810000  1
  C  C158  1  0.35390000  0.56660000  0.05300000  1
  C  C159  1  0.35390000  0.56660000  0.44700000  1
  C  C160  1  0.96550000  0.56950000  0.59690000  1
  C  C161  1  0.96550000  0.56950000  0.90310000  1
  C  C162  1  0.08580000  0.57840000  0.51280000  1
  C  C163  1  0.08580000  0.57840000  0.98720000  1
  C  C164  1  0.52300000  0.59690000  0.58180000  1
  C  C165  1  0.52300000  0.59690000  0.91820000  1
  C  C166  1  0.92280000  0.59830000  0.65550000  1
  C  C167  1  0.92280000  0.59830000  0.84450000  1
  C  C168  1  0.04860000  0.60390000  0.56710000  1
  C  C169  1  0.04860000  0.60390000  0.93290000  1
  C  C170  1  0.46850000  0.60760000  0.52620000  1
  C  C171  1  0.46850000  0.60760000  0.97380000  1
  C  C172  1  0.36890000  0.62940000  0.08630000  1
  C  C173  1  0.36890000  0.62940000  0.41370000  1
  C  C174  1  0.65390000  0.63000000  0.66120000  1
  C  C175  1  0.65390000  0.63000000  0.83880000  1
  C  C176  1  0.31640000  0.63730000  0.14810000  1
  C  C177  1  0.31640000  0.63730000  0.35190000  1
  C  C178  1  0.59270000  0.64560000  0.60330000  1
  C  C179  1  0.59270000  0.64560000  0.89670000  1
  C  C180  1  0.48760000  0.67070000  0.00830000  1
  C  C181  1  0.48760000  0.67070000  0.49170000  1
  C  C182  1  0.43490000  0.68060000  0.06420000  1
  C  C183  1  0.43490000  0.68060000  0.43580000  1
  C  C184  1  0.61010000  0.70880000  0.57000000  1
  C  C185  1  0.61010000  0.70880000  0.93000000  1
  C  C186  1  0.55960000  0.72100000  0.51590000  1
  C  C187  1  0.55960000  0.72100000  0.98410000  1
  C  C188  1  0.05960000  0.77900000  0.01590000  1
  C  C189  1  0.05960000  0.77900000  0.48410000  1
  C  C190  1  0.11010000  0.79120000  0.07000000  1
  C  C191  1  0.11010000  0.79120000  0.43000000  1
  C  C192  1  0.93490000  0.81940000  0.56420000  1
  C  C193  1  0.93490000  0.81940000  0.93580000  1
  C  C194  1  0.98760000  0.82930000  0.50830000  1
  C  C195  1  0.98760000  0.82930000  0.99170000  1
  C  C196  1  0.09270000  0.85440000  0.10330000  1
  C  C197  1  0.09270000  0.85440000  0.39670000  1
  C  C198  1  0.81640000  0.86270000  0.64810000  1
  C  C199  1  0.81640000  0.86270000  0.85190000  1
  C  C200  1  0.15390000  0.87000000  0.16120000  1
  C  C201  1  0.15390000  0.87000000  0.33880000  1
  C  C202  1  0.86890000  0.87060000  0.58630000  1
  C  C203  1  0.86890000  0.87060000  0.91370000  1
  C  C204  1  0.96850000  0.89240000  0.02620000  1
  C  C205  1  0.96850000  0.89240000  0.47380000  1
  C  C206  1  0.54860000  0.89610000  0.06710000  1
  C  C207  1  0.54860000  0.89610000  0.43290000  1
  C  C208  1  0.42280000  0.90170000  0.15550000  1
  C  C209  1  0.42280000  0.90170000  0.34450000  1
  C  C210  1  0.02300000  0.90310000  0.08180000  1
  C  C211  1  0.02300000  0.90310000  0.41820000  1
  C  C212  1  0.58580000  0.92160000  0.01280000  1
  C  C213  1  0.58580000  0.92160000  0.48720000  1
  C  C214  1  0.46550000  0.93050000  0.09690000  1
  C  C215  1  0.46550000  0.93050000  0.40310000  1
  C  C216  1  0.85390000  0.93340000  0.55300000  1
  C  C217  1  0.85390000  0.93340000  0.94700000  1
  C  C218  1  0.89950000  0.94290000  0.00190000  1
  C  C219  1  0.89950000  0.94290000  0.49810000  1
  C  C220  1  0.54200000  0.98260000  0.51510000  1
  C  C221  1  0.54200000  0.98260000  0.98490000  1
  C  C222  1  0.42240000  0.99040000  0.07170000  1
  C  C223  1  0.42240000  0.99040000  0.42830000  1
  O  O224  1  0.64150000  0.06260000  0.68480000  1
  O  O225  1  0.64150000  0.06260000  0.81520000  1
  O  O226  1  0.85610000  0.06920000  0.68315000  1
  O  O227  1  0.85610000  0.06920000  0.81685000  1
  O  O228  1  0.23960000  0.08742000  0.16582000  1
  O  O229  1  0.23960000  0.08742000  0.33418000  1
  O  O230  1  0.54750000  0.15890000  0.67233000  1
  O  O231  1  0.54750000  0.15890000  0.82767000  1
  O  O232  1  0.79160000  0.17970000  0.68202000  1
  O  O233  1  0.79160000  0.17970000  0.81798000  1
  O  O234  1  0.16730000  0.19349000  0.17736000  1
  O  O235  1  0.16730000  0.19349000  0.32264000  1
  O  O236  1  0.66730000  0.30651000  0.67736000  1
  O  O237  1  0.66730000  0.30651000  0.82264000  1
  O  O238  1  0.29160000  0.32030000  0.18202000  1
  O  O239  1  0.29160000  0.32030000  0.31798000  1
  O  O240  1  0.04750000  0.34110000  0.17233000  1
  O  O241  1  0.04750000  0.34110000  0.32767000  1
  O  O242  1  0.73960000  0.41258000  0.66582000  1
  O  O243  1  0.73960000  0.41258000  0.83418000  1
  O  O244  1  0.35610000  0.43080000  0.18315000  1
  O  O245  1  0.35610000  0.43080000  0.31685000  1
  O  O246  1  0.14150000  0.43740000  0.18480000  1
  O  O247  1  0.14150000  0.43740000  0.31520000  1
  O  O248  1  0.85850000  0.56260000  0.68480000  1
  O  O249  1  0.85850000  0.56260000  0.81520000  1
  O  O250  1  0.64390000  0.56920000  0.68315000  1
  O  O251  1  0.64390000  0.56920000  0.81685000  1
  O  O252  1  0.26040000  0.58742000  0.16582000  1
  O  O253  1  0.26040000  0.58742000  0.33418000  1
  O  O254  1  0.95250000  0.65890000  0.67233000  1
  O  O255  1  0.95250000  0.65890000  0.82767000  1
  O  O256  1  0.70840000  0.67970000  0.68202000  1
  O  O257  1  0.70840000  0.67970000  0.81798000  1
  O  O258  1  0.33270000  0.69349000  0.17736000  1
  O  O259  1  0.33270000  0.69349000  0.32264000  1
  O  O260  1  0.83270000  0.80651000  0.67736000  1
  O  O261  1  0.83270000  0.80651000  0.82264000  1
  O  O262  1  0.20840000  0.82030000  0.18202000  1
  O  O263  1  0.20840000  0.82030000  0.31798000  1
  O  O264  1  0.45250000  0.84110000  0.17233000  1
  O  O265  1  0.45250000  0.84110000  0.32767000  1
  O  O266  1  0.76040000  0.91258000  0.66582000  1
  O  O267  1  0.76040000  0.91258000  0.83418000  1
  O  O268  1  0.14390000  0.93080000  0.18315000  1
  O  O269  1  0.14390000  0.93080000  0.31685000  1
  O  O270  1  0.35850000  0.93740000  0.18480000  1
  O  O271  1  0.35850000  0.93740000  0.31520000  1
