# generated using pymatgen
data_MnH9C14(NO2)2
_symmetry_space_group_name_H-M   'P 1'
_cell_length_a   15.20900000
_cell_length_b   16.36100000
_cell_length_c   17.46300000
_cell_angle_alpha   110.41000000
_cell_angle_beta   90.00000000
_cell_angle_gamma   90.00000000
_symmetry_Int_Tables_number   1
_chemical_formula_structural   MnH9C14(NO2)2
_chemical_formula_sum   'Mn8 H72 C112 N16 O32'
_cell_volume   4072.59696778
_cell_formula_units_Z   8
loop_
 _symmetry_equiv_pos_site_id
 _symmetry_equiv_pos_as_xyz
  1  'x, y, z'
loop_
 _atom_site_type_symbol
 _atom_site_label
 _atom_site_symmetry_multiplicity
 _atom_site_fract_x
 _atom_site_fract_y
 _atom_site_fract_z
 _atom_site_occupancy
  Mn  Mn0  1  0.06644000  0.95813000  0.73338000  1
  Mn  Mn1  1  0.14904000  0.55023000  0.28169000  1
  Mn  Mn2  1  0.35096000  0.05023000  0.78169000  1
  Mn  Mn3  1  0.43356000  0.45813000  0.23338000  1
  Mn  Mn4  1  0.56644000  0.54187000  0.76662000  1
  Mn  Mn5  1  0.64904000  0.94977000  0.21831000  1
  Mn  Mn6  1  0.85096000  0.44977000  0.71831000  1
  Mn  Mn7  1  0.93356000  0.04187000  0.26662000  1
  H  H8  1  0.01330000  0.71370000  0.56510000  1
  H  H9  1  0.01490000  0.68210000  0.68880000  1
  H  H10  1  0.01730000  0.15770000  0.57520000  1
  H  H11  1  0.01730000  0.41480000  0.33850000  1
  H  H12  1  0.03310000  0.22870000  0.74910000  1
  H  H13  1  0.04570000  0.12170000  0.44040000  1
  H  H14  1  0.06330000  0.69050000  0.43710000  1
  H  H15  1  0.09030000  0.56300000  0.73420000  1
  H  H16  1  0.11600000  0.27910000  0.27800000  1
  H  H17  1  0.12930000  0.76130000  0.72010000  1
  H  H18  1  0.13530000  0.49810000  0.55970000  1
  H  H19  1  0.15920000  0.45430000  0.78330000  1
  H  H20  1  0.17190000  0.47570000  0.42820000  1
  H  H21  1  0.18470000  0.98870000  0.60640000  1
  H  H22  1  0.18980000  0.96640000  0.31980000  1
  H  H23  1  0.20800000  0.96260000  0.46880000  1
  H  H24  1  0.21400000  0.75620000  0.31790000  1
  H  H25  1  0.24610000  0.05620000  0.24410000  1
  H  H26  1  0.25390000  0.55620000  0.74410000  1
  H  H27  1  0.28600000  0.25620000  0.81790000  1
  H  H28  1  0.29200000  0.46260000  0.96880000  1
  H  H29  1  0.31020000  0.46640000  0.81980000  1
  H  H30  1  0.31530000  0.48870000  0.10640000  1
  H  H31  1  0.32810000  0.97570000  0.92820000  1
  H  H32  1  0.34080000  0.95430000  0.28330000  1
  H  H33  1  0.36470000  0.99810000  0.05970000  1
  H  H34  1  0.37070000  0.26130000  0.22010000  1
  H  H35  1  0.38400000  0.77910000  0.77800000  1
  H  H36  1  0.40970000  0.06300000  0.23420000  1
  H  H37  1  0.43670000  0.19050000  0.93710000  1
  H  H38  1  0.45430000  0.62170000  0.94040000  1
  H  H39  1  0.46690000  0.72870000  0.24910000  1
  H  H40  1  0.48270000  0.65770000  0.07520000  1
  H  H41  1  0.48270000  0.91480000  0.83850000  1
  H  H42  1  0.48510000  0.18210000  0.18880000  1
  H  H43  1  0.48670000  0.21370000  0.06510000  1
  H  H44  1  0.51330000  0.78630000  0.93490000  1
  H  H45  1  0.51490000  0.81790000  0.81120000  1
  H  H46  1  0.51730000  0.08520000  0.16150000  1
  H  H47  1  0.51730000  0.34230000  0.92480000  1
  H  H48  1  0.53310000  0.27130000  0.75090000  1
  H  H49  1  0.54570000  0.37830000  0.05960000  1
  H  H50  1  0.56330000  0.80950000  0.06290000  1
  H  H51  1  0.59030000  0.93700000  0.76580000  1
  H  H52  1  0.61600000  0.22090000  0.22200000  1
  H  H53  1  0.62930000  0.73870000  0.77990000  1
  H  H54  1  0.63530000  0.00190000  0.94030000  1
  H  H55  1  0.65920000  0.04570000  0.71670000  1
  H  H56  1  0.67190000  0.02430000  0.07180000  1
  H  H57  1  0.68470000  0.51130000  0.89360000  1
  H  H58  1  0.68980000  0.53360000  0.18020000  1
  H  H59  1  0.70800000  0.53740000  0.03120000  1
  H  H60  1  0.71400000  0.74380000  0.18210000  1
  H  H61  1  0.74610000  0.44380000  0.25590000  1
  H  H62  1  0.75390000  0.94380000  0.75590000  1
  H  H63  1  0.78600000  0.24380000  0.68210000  1
  H  H64  1  0.79200000  0.03740000  0.53120000  1
  H  H65  1  0.81020000  0.03360000  0.68020000  1
  H  H66  1  0.81530000  0.01130000  0.39360000  1
  H  H67  1  0.82810000  0.52430000  0.57180000  1
  H  H68  1  0.84080000  0.54570000  0.21670000  1
  H  H69  1  0.86470000  0.50190000  0.44030000  1
  H  H70  1  0.87070000  0.23870000  0.27990000  1
  H  H71  1  0.88400000  0.72090000  0.72200000  1
  H  H72  1  0.90970000  0.43700000  0.26580000  1
  H  H73  1  0.93670000  0.30950000  0.56290000  1
  H  H74  1  0.95430000  0.87830000  0.55960000  1
  H  H75  1  0.96690000  0.77130000  0.25090000  1
  H  H76  1  0.98270000  0.58520000  0.66150000  1
  H  H77  1  0.98270000  0.84230000  0.42480000  1
  H  H78  1  0.98510000  0.31790000  0.31120000  1
  H  H79  1  0.98670000  0.28630000  0.43490000  1
  C  C80  1  0.00240000  0.38490000  0.73990000  1
  C  C81  1  0.00780000  0.89390000  0.54290000  1
  C  C82  1  0.02450000  0.87540000  0.46140000  1
  C  C83  1  0.03350000  0.62190000  0.66400000  1
  C  C84  1  0.04610000  0.66380000  0.53870000  1
  C  C85  1  0.06470000  0.60700000  0.57870000  1
  C  C86  1  0.07510000  0.64830000  0.46010000  1
  C  C87  1  0.08400000  0.26210000  0.76260000  1
  C  C88  1  0.08450000  0.34760000  0.76190000  1
  C  C89  1  0.08460000  0.11920000  0.27540000  1
  C  C90  1  0.09410000  0.90010000  0.43000000  1
  C  C91  1  0.10320000  0.88250000  0.33950000  1
  C  C92  1  0.11610000  0.53720000  0.53540000  1
  C  C93  1  0.13900000  0.52510000  0.45610000  1
  C  C94  1  0.14150000  0.95930000  0.56930000  1
  C  C95  1  0.15640000  0.94360000  0.48580000  1
  C  C96  1  0.16010000  0.22750000  0.78360000  1
  C  C97  1  0.16010000  0.39700000  0.78220000  1
  C  C98  1  0.16120000  0.13710000  0.78440000  1
  C  C99  1  0.16790000  0.24710000  0.26600000  1
  C  C100  1  0.16850000  0.16210000  0.26400000  1
  C  C101  1  0.17760000  0.65090000  0.73230000  1
  C  C102  1  0.17990000  0.73640000  0.73230000  1
  C  C103  1  0.23550000  0.27910000  0.80300000  1
  C  C104  1  0.23830000  0.36270000  0.80110000  1
  C  C105  1  0.24170000  0.37540000  0.24850000  1
  C  C106  1  0.24240000  0.28470000  0.25040000  1
  C  C107  1  0.24610000  0.11390000  0.24640000  1
  C  C108  1  0.25390000  0.61390000  0.74640000  1
  C  C109  1  0.25760000  0.78470000  0.75040000  1
  C  C110  1  0.25830000  0.87540000  0.74850000  1
  C  C111  1  0.26170000  0.86270000  0.30110000  1
  C  C112  1  0.26450000  0.77910000  0.30300000  1
  C  C113  1  0.32010000  0.23640000  0.23230000  1
  C  C114  1  0.32240000  0.15090000  0.23230000  1
  C  C115  1  0.33150000  0.66210000  0.76400000  1
  C  C116  1  0.33210000  0.74710000  0.76600000  1
  C  C117  1  0.33880000  0.63710000  0.28440000  1
  C  C118  1  0.33990000  0.72750000  0.28360000  1
  C  C119  1  0.33990000  0.89700000  0.28220000  1
  C  C120  1  0.34360000  0.44360000  0.98580000  1
  C  C121  1  0.35850000  0.45930000  0.06930000  1
  C  C122  1  0.36100000  0.02510000  0.95610000  1
  C  C123  1  0.38390000  0.03720000  0.03540000  1
  C  C124  1  0.39680000  0.38250000  0.83950000  1
  C  C125  1  0.40590000  0.40010000  0.93000000  1
  C  C126  1  0.41540000  0.61920000  0.77540000  1
  C  C127  1  0.41550000  0.84760000  0.26190000  1
  C  C128  1  0.41600000  0.76210000  0.26260000  1
  C  C129  1  0.42490000  0.14830000  0.96010000  1
  C  C130  1  0.43530000  0.10700000  0.07870000  1
  C  C131  1  0.45390000  0.16380000  0.03870000  1
  C  C132  1  0.46650000  0.12190000  0.16400000  1
  C  C133  1  0.47550000  0.37540000  0.96140000  1
  C  C134  1  0.49220000  0.39390000  0.04290000  1
  C  C135  1  0.49760000  0.88490000  0.23990000  1
  C  C136  1  0.50240000  0.11510000  0.76010000  1
  C  C137  1  0.50780000  0.60610000  0.95710000  1
  C  C138  1  0.52450000  0.62460000  0.03860000  1
  C  C139  1  0.53350000  0.87810000  0.83600000  1
  C  C140  1  0.54610000  0.83620000  0.96130000  1
  C  C141  1  0.56470000  0.89300000  0.92130000  1
  C  C142  1  0.57510000  0.85170000  0.03990000  1
  C  C143  1  0.58400000  0.23790000  0.73740000  1
  C  C144  1  0.58450000  0.15240000  0.73810000  1
  C  C145  1  0.58460000  0.38080000  0.22460000  1
  C  C146  1  0.59410000  0.59990000  0.07000000  1
  C  C147  1  0.60320000  0.61750000  0.16050000  1
  C  C148  1  0.61610000  0.96280000  0.96460000  1
  C  C149  1  0.63900000  0.97490000  0.04390000  1
  C  C150  1  0.64150000  0.54070000  0.93070000  1
  C  C151  1  0.65640000  0.55640000  0.01420000  1
  C  C152  1  0.66010000  0.10300000  0.71780000  1
  C  C153  1  0.66010000  0.27250000  0.71640000  1
  C  C154  1  0.66120000  0.36290000  0.71560000  1
  C  C155  1  0.66790000  0.25290000  0.23400000  1
  C  C156  1  0.66850000  0.33790000  0.23600000  1
  C  C157  1  0.67760000  0.84910000  0.76770000  1
  C  C158  1  0.67990000  0.76360000  0.76770000  1
  C  C159  1  0.73550000  0.22090000  0.69700000  1
  C  C160  1  0.73830000  0.13730000  0.69890000  1
  C  C161  1  0.74170000  0.12460000  0.25150000  1
  C  C162  1  0.74240000  0.21530000  0.24960000  1
  C  C163  1  0.74610000  0.38610000  0.25360000  1
  C  C164  1  0.75390000  0.88610000  0.75360000  1
  C  C165  1  0.75760000  0.71530000  0.74960000  1
  C  C166  1  0.75830000  0.62460000  0.75150000  1
  C  C167  1  0.76170000  0.63730000  0.19890000  1
  C  C168  1  0.76450000  0.72090000  0.19700000  1
  C  C169  1  0.82010000  0.26360000  0.26770000  1
  C  C170  1  0.82240000  0.34910000  0.26770000  1
  C  C171  1  0.83150000  0.83790000  0.73600000  1
  C  C172  1  0.83210000  0.75290000  0.73400000  1
  C  C173  1  0.83880000  0.86290000  0.21560000  1
  C  C174  1  0.83990000  0.60300000  0.21780000  1
  C  C175  1  0.83990000  0.77250000  0.21640000  1
  C  C176  1  0.84360000  0.05640000  0.51420000  1
  C  C177  1  0.85850000  0.04070000  0.43070000  1
  C  C178  1  0.86100000  0.47490000  0.54390000  1
  C  C179  1  0.88390000  0.46280000  0.46460000  1
  C  C180  1  0.89680000  0.11750000  0.66050000  1
  C  C181  1  0.90590000  0.09990000  0.57000000  1
  C  C182  1  0.91540000  0.88080000  0.72460000  1
  C  C183  1  0.91550000  0.65240000  0.23810000  1
  C  C184  1  0.91600000  0.73790000  0.23740000  1
  C  C185  1  0.92490000  0.35170000  0.53990000  1
  C  C186  1  0.93530000  0.39300000  0.42130000  1
  C  C187  1  0.95390000  0.33620000  0.46130000  1
  C  C188  1  0.96650000  0.37810000  0.33600000  1
  C  C189  1  0.97550000  0.12460000  0.53860000  1
  C  C190  1  0.99220000  0.10610000  0.45710000  1
  C  C191  1  0.99760000  0.61510000  0.26010000  1
  N  N192  1  0.06910000  0.93460000  0.59830000  1
  N  N193  1  0.09920000  0.60360000  0.71450000  1
  N  N194  1  0.11810000  0.57850000  0.41530000  1
  N  N195  1  0.18680000  0.91390000  0.31980000  1
  N  N196  1  0.31320000  0.41390000  0.81980000  1
  N  N197  1  0.38190000  0.07850000  0.91530000  1
  N  N198  1  0.40080000  0.10360000  0.21450000  1
  N  N199  1  0.43090000  0.43460000  0.09830000  1
  N  N200  1  0.56910000  0.56540000  0.90170000  1
  N  N201  1  0.59920000  0.89640000  0.78550000  1
  N  N202  1  0.61810000  0.92150000  0.08470000  1
  N  N203  1  0.68680000  0.58610000  0.18020000  1
  N  N204  1  0.81320000  0.08610000  0.68020000  1
  N  N205  1  0.88190000  0.42150000  0.58470000  1
  N  N206  1  0.90080000  0.39640000  0.28550000  1
  N  N207  1  0.93090000  0.06540000  0.40170000  1
  O  O208  1  0.00240000  0.46260000  0.74130000  1
  O  O209  1  0.01510000  0.16080000  0.28650000  1
  O  O210  1  0.06520000  0.66100000  0.27850000  1
  O  O211  1  0.08580000  0.03840000  0.26700000  1
  O  O212  1  0.09200000  0.09180000  0.75980000  1
  O  O213  1  0.17260000  0.41900000  0.27190000  1
  O  O214  1  0.19090000  0.90170000  0.72190000  1
  O  O215  1  0.22810000  0.11070000  0.80990000  1
  O  O216  1  0.27190000  0.61070000  0.30990000  1
  O  O217  1  0.30910000  0.40170000  0.22190000  1
  O  O218  1  0.32740000  0.91900000  0.77190000  1
  O  O219  1  0.40800000  0.59180000  0.25980000  1
  O  O220  1  0.41420000  0.53840000  0.76700000  1
  O  O221  1  0.43480000  0.16100000  0.77850000  1
  O  O222  1  0.48490000  0.66080000  0.78650000  1
  O  O223  1  0.49760000  0.96260000  0.24130000  1
  O  O224  1  0.50240000  0.03740000  0.75870000  1
  O  O225  1  0.51510000  0.33920000  0.21350000  1
  O  O226  1  0.56520000  0.83900000  0.22150000  1
  O  O227  1  0.58580000  0.46160000  0.23300000  1
  O  O228  1  0.59200000  0.40820000  0.74020000  1
  O  O229  1  0.67260000  0.08100000  0.22810000  1
  O  O230  1  0.69090000  0.59830000  0.77810000  1
  O  O231  1  0.72810000  0.38930000  0.69010000  1
  O  O232  1  0.77190000  0.88930000  0.19010000  1
  O  O233  1  0.80910000  0.09830000  0.27810000  1
  O  O234  1  0.82740000  0.58100000  0.72810000  1
  O  O235  1  0.90800000  0.90820000  0.24020000  1
  O  O236  1  0.91420000  0.96160000  0.73300000  1
  O  O237  1  0.93480000  0.33900000  0.72150000  1
  O  O238  1  0.98490000  0.83920000  0.71350000  1
  O  O239  1  0.99760000  0.53740000  0.25870000  1
