# generated using pymatgen
data_Zn3H28C40(N3O7)2
_symmetry_space_group_name_H-M   'P 1'
_cell_length_a   13.51400000
_cell_length_b   14.09843657
_cell_length_c   14.82674594
_cell_angle_alpha   109.47324310
_cell_angle_beta   107.90945027
_cell_angle_gamma   108.16455981
_symmetry_Int_Tables_number   1
_chemical_formula_structural   Zn3H28C40(N3O7)2
_chemical_formula_sum   'Zn6 H56 C80 N12 O28'
_cell_volume   2247.86698310
_cell_formula_units_Z   2
loop_
 _symmetry_equiv_pos_site_id
 _symmetry_equiv_pos_as_xyz
  1  'x, y, z'
loop_
 _atom_site_type_symbol
 _atom_site_label
 _atom_site_symmetry_multiplicity
 _atom_site_fract_x
 _atom_site_fract_y
 _atom_site_fract_z
 _atom_site_occupancy
  C  C0  1  0.68623000  0.64140000  0.24224000  1
  C  C1  1  0.94399000  0.39916000  0.75776000  1
  C  C2  1  0.79345000  0.71955000  0.33162000  1
  C  C3  1  0.96183000  0.38793000  0.66838000  1
  C  C4  1  0.76290000  0.65910000  0.12726000  1
  C  C5  1  0.13564000  0.53184000  0.87274000  1
  C  C6  1  0.77631000  0.94351000  0.68620000  1
  C  C7  1  0.59011000  0.25731000  0.31380000  1
  C  C8  1  0.66448000  0.92578000  0.62856000  1
  C  C9  1  0.53592000  0.29722000  0.37144000  1
  C  C10  1  0.89048000  0.77048000  0.31738000  1
  C  C11  1  0.07310000  0.45310000  0.68262000  1
  C  C12  1  0.87236000  0.73816000  0.21200000  1
  C  C13  1  0.16036000  0.52616000  0.78800000  1
  C  C14  1  0.04128000  0.89038000  0.50972000  1
  C  C15  1  0.03156000  0.38066000  0.49028000  1
  C  C16  1  0.85905000  0.04165000  0.78102000  1
  C  C17  1  0.57803000  0.26063000  0.21898000  1
  C  C18  1  0.00840000  0.85450000  0.40598000  1
  C  C19  1  0.10242000  0.44852000  0.59402000  1
  C  C20  1  0.18065000  0.01525000  0.70330000  1
  C  C21  1  0.97735000  0.31195000  0.29670000  1
  C  C22  1  0.63484000  0.01044000  0.66908000  1
  C  C23  1  0.46576000  0.34136000  0.33092000  1
  C  C24  1  0.15975000  0.97685000  0.59750000  1
  C  C25  1  0.06225000  0.37935000  0.40250000  1
  C  C26  1  0.32714000  0.80311000  0.19692000  1
  C  C27  1  0.63022000  0.60619000  0.80308000  1
  C  C28  1  0.28957000  0.09807000  0.78534000  1
  C  C29  1  0.00423000  0.31273000  0.21466000  1
  C  C30  1  0.82870000  0.12684000  0.82028000  1
  C  C31  1  0.50842000  0.30656000  0.17972000  1
  C  C32  1  0.07973000  0.76328000  0.07974000  1
  C  C33  1  0.49999000  0.68354000  0.92026000  1
  C  C34  1  0.63901000  0.89201000  0.33402000  1
  C  C35  1  0.80499000  0.55799000  0.66598000  1
  C  C36  1  0.71552000  0.11104000  0.76458000  1
  C  C37  1  0.45094000  0.34646000  0.23542000  1
  C  C38  1  0.25458000  0.02478000  0.57976000  1
  C  C39  1  0.17482000  0.44502000  0.42024000  1
  C  C40  1  0.74542000  0.97522000  0.42024000  1
  C  C41  1  0.82518000  0.55498000  0.57976000  1
  C  C42  1  0.28448000  0.88896000  0.23542000  1
  C  C43  1  0.54906000  0.65354000  0.76458000  1
  C  C44  1  0.36099000  0.10799000  0.66598000  1
  C  C45  1  0.19501000  0.44201000  0.33402000  1
  C  C46  1  0.92027000  0.23672000  0.92026000  1
  C  C47  1  0.50001000  0.31646000  0.07974000  1
  C  C48  1  0.17130000  0.87316000  0.17972000  1
  C  C49  1  0.49158000  0.69344000  0.82028000  1
  C  C50  1  0.71043000  0.90193000  0.21466000  1
  C  C51  1  0.99577000  0.68727000  0.78534000  1
  C  C52  1  0.67286000  0.19689000  0.80308000  1
  C  C53  1  0.36978000  0.39381000  0.19692000  1
  C  C54  1  0.84025000  0.02315000  0.40250000  1
  C  C55  1  0.93775000  0.62065000  0.59750000  1
  C  C56  1  0.36516000  0.98956000  0.33092000  1
  C  C57  1  0.53424000  0.65864000  0.66908000  1
  C  C58  1  0.81935000  0.98475000  0.29670000  1
  C  C59  1  0.02265000  0.68805000  0.70330000  1
  C  C60  1  0.99160000  0.14550000  0.59402000  1
  C  C61  1  0.89758000  0.55148000  0.40598000  1
  C  C62  1  0.14095000  0.95835000  0.21898000  1
  C  C63  1  0.42197000  0.73937000  0.78102000  1
  C  C64  1  0.95872000  0.10962000  0.49028000  1
  C  C65  1  0.96844000  0.61934000  0.50972000  1
  C  C66  1  0.12764000  0.26184000  0.78800000  1
  C  C67  1  0.83964000  0.47384000  0.21200000  1
  C  C68  1  0.10952000  0.22952000  0.68262000  1
  C  C69  1  0.92690000  0.54690000  0.31738000  1
  C  C70  1  0.33552000  0.07422000  0.37144000  1
  C  C71  1  0.46408000  0.70278000  0.62856000  1
  C  C72  1  0.22369000  0.05649000  0.31380000  1
  C  C73  1  0.40989000  0.74269000  0.68620000  1
  C  C74  1  0.23710000  0.34090000  0.87274000  1
  C  C75  1  0.86436000  0.46816000  0.12726000  1
  C  C76  1  0.20655000  0.28045000  0.66838000  1
  C  C77  1  0.03817000  0.61207000  0.33162000  1
  C  C78  1  0.31377000  0.35860000  0.75776000  1
  C  C79  1  0.05601000  0.60084000  0.24224000  1
  H  H80  1  0.40890000  0.56410000  0.12320000  1
  H  H81  1  0.78570000  0.44090000  0.87680000  1
  H  H82  1  0.13050000  0.64430000  0.25300000  1
  H  H83  1  0.37750000  0.39130000  0.74700000  1
  H  H84  1  0.80090000  0.73810000  0.40060000  1
  H  H85  1  0.90030000  0.33750000  0.59940000  1
  H  H86  1  0.61080000  0.85910000  0.56460000  1
  H  H87  1  0.54620000  0.29450000  0.43540000  1
  H  H88  1  0.98540000  0.85870000  0.52920000  1
  H  H89  1  0.95620000  0.32950000  0.47080000  1
  H  H90  1  0.75300000  0.63840000  0.05740000  1
  H  H91  1  0.19560000  0.58100000  0.94260000  1
  H  H92  1  0.12080000  0.98510000  0.71940000  1
  H  H93  1  0.90140000  0.26570000  0.28060000  1
  H  H94  1  0.93350000  0.05050000  0.81780000  1
  H  H95  1  0.61570000  0.23270000  0.18220000  1
  H  H96  1  0.93420000  0.76990000  0.19860000  1
  H  H97  1  0.23560000  0.57130000  0.80140000  1
  H  H98  1  0.55990000  0.00030000  0.63200000  1
  H  H99  1  0.42790000  0.36830000  0.36800000  1
  H  H100  1  0.57740000  0.86000000  0.34760000  1
  H  H101  1  0.72980000  0.51240000  0.65240000  1
  H  H102  1  0.06520000  0.88530000  0.38700000  1
  H  H103  1  0.17820000  0.49830000  0.61300000  1
  H  H104  1  0.30100000  0.12260000  0.85600000  1
  H  H105  1  0.94500000  0.26660000  0.14400000  1
  H  H106  1  0.24590000  0.00060000  0.51000000  1
  H  H107  1  0.23590000  0.49060000  0.49000000  1
  H  H108  1  0.75410000  0.99940000  0.49000000  1
  H  H109  1  0.76410000  0.50940000  0.51000000  1
  H  H110  1  0.69900000  0.87740000  0.14400000  1
  H  H111  1  0.05500000  0.73340000  0.85600000  1
  H  H112  1  0.93480000  0.11470000  0.61300000  1
  H  H113  1  0.82180000  0.50170000  0.38700000  1
  H  H114  1  0.42260000  0.14000000  0.65240000  1
  H  H115  1  0.27020000  0.48760000  0.34760000  1
  H  H116  1  0.44010000  0.99970000  0.36800000  1
  H  H117  1  0.57210000  0.63170000  0.63200000  1
  H  H118  1  0.06580000  0.23010000  0.80140000  1
  H  H119  1  0.76440000  0.42870000  0.19860000  1
  H  H120  1  0.06650000  0.94950000  0.18220000  1
  H  H121  1  0.38430000  0.76730000  0.81780000  1
  H  H122  1  0.87920000  0.01490000  0.28060000  1
  H  H123  1  0.09860000  0.73430000  0.71940000  1
  H  H124  1  0.24700000  0.36160000  0.94260000  1
  H  H125  1  0.80440000  0.41900000  0.05740000  1
  H  H126  1  0.01460000  0.14130000  0.47080000  1
  H  H127  1  0.04380000  0.67050000  0.52920000  1
  H  H128  1  0.38920000  0.14090000  0.43540000  1
  H  H129  1  0.45380000  0.70550000  0.56460000  1
  H  H130  1  0.19910000  0.26190000  0.59940000  1
  H  H131  1  0.09970000  0.66250000  0.40060000  1
  H  H132  1  0.86950000  0.35570000  0.74700000  1
  H  H133  1  0.62250000  0.60870000  0.25300000  1
  H  H134  1  0.59110000  0.43590000  0.87680000  1
  H  H135  1  0.21430000  0.55910000  0.12320000  1
  N  N136  1  0.80915000  0.85425000  0.64310000  1
  N  N137  1  0.66605000  0.21115000  0.35690000  1
  N  N138  1  0.66995000  0.61063000  0.14094000  1
  N  N139  1  0.02901000  0.46969000  0.85906000  1
  N  N140  1  0.61978000  0.85478000  0.23172000  1
  N  N141  1  0.88806000  0.62306000  0.76828000  1
  N  N142  1  0.38022000  0.14522000  0.76828000  1
  N  N143  1  0.11194000  0.37694000  0.23172000  1
  N  N144  1  0.33005000  0.38937000  0.85906000  1
  N  N145  1  0.97099000  0.53031000  0.14094000  1
  N  N146  1  0.19085000  0.14575000  0.35690000  1
  N  N147  1  0.33395000  0.78885000  0.64310000  1
  O  O148  1  0.32889000  0.79799000  0.56398000  1
  O  O149  1  0.26491000  0.23401000  0.43602000  1
  O  O150  1  0.90982000  0.87372000  0.68744000  1
  O  O151  1  0.72238000  0.18628000  0.31256000  1
  O  O152  1  0.42492000  0.57980000  0.07722000  1
  O  O153  1  0.84770000  0.50258000  0.92278000  1
  O  O154  1  0.33766000  0.74524000  0.24210000  1
  O  O155  1  0.59556000  0.50314000  0.75790000  1
  O  O156  1  0.10020000  0.68111000  0.05976000  1
  O  O157  1  0.54044000  0.62135000  0.94024000  1
  O  O158  1  0.35849000  0.80428000  0.12442000  1
  O  O159  1  0.73407000  0.67986000  0.87558000  1
  O  O160  1  0.01252000  0.23581000  0.97556000  1
  O  O161  1  0.53696000  0.26025000  0.02444000  1
  O  O162  1  0.98748000  0.76419000  0.02444000  1
  O  O163  1  0.46304000  0.73975000  0.97556000  1
  O  O164  1  0.64151000  0.19572000  0.87558000  1
  O  O165  1  0.26593000  0.32014000  0.12442000  1
  O  O166  1  0.89980000  0.31889000  0.94024000  1
  O  O167  1  0.45956000  0.37865000  0.05976000  1
  O  O168  1  0.66234000  0.25476000  0.75790000  1
  O  O169  1  0.40444000  0.49686000  0.24210000  1
  O  O170  1  0.57508000  0.42020000  0.92278000  1
  O  O171  1  0.15230000  0.49742000  0.07722000  1
  O  O172  1  0.09018000  0.12628000  0.31256000  1
  O  O173  1  0.27762000  0.81372000  0.68744000  1
  O  O174  1  0.67111000  0.20201000  0.43602000  1
  O  O175  1  0.73509000  0.76599000  0.56398000  1
  Zn  Zn176  1  0.50000000  0.50000000  0.00000000  1
  Zn  Zn177  1  0.00000000  0.50000000  0.00000000  1
  Zn  Zn178  1  0.45840000  0.73000000  0.10502000  1
  Zn  Zn179  1  0.85338000  0.62498000  0.89498000  1
  Zn  Zn180  1  0.54160000  0.27000000  0.89498000  1
  Zn  Zn181  1  0.14662000  0.37502000  0.10502000  1
