# generated using pymatgen
data_CdH22C30(NO)6
_symmetry_space_group_name_H-M   'P 1'
_cell_length_a   12.31688096
_cell_length_b   12.31688096
_cell_length_c   13.15630000
_cell_angle_alpha   78.75291690
_cell_angle_beta   78.75291690
_cell_angle_gamma   68.30481690
_symmetry_Int_Tables_number   1
_chemical_formula_structural   CdH22C30(NO)6
_chemical_formula_sum   'Cd2 H44 C60 N12 O12'
_cell_volume   1802.26046494
_cell_formula_units_Z   2
loop_
 _symmetry_equiv_pos_site_id
 _symmetry_equiv_pos_as_xyz
  1  'x, y, z'
loop_
 _atom_site_type_symbol
 _atom_site_label
 _atom_site_symmetry_multiplicity
 _atom_site_fract_x
 _atom_site_fract_y
 _atom_site_fract_z
 _atom_site_occupancy
  C  C0  1  0.26010000  0.74610000  0.99750000  1
  C  C1  1  0.74610000  0.26010000  0.49750000  1
  C  C2  1  0.26610000  0.77110000  0.59450000  1
  C  C3  1  0.77110000  0.26610000  0.09450000  1
  C  C4  1  0.31280000  0.77800000  0.41050000  1
  C  C5  1  0.77800000  0.31280000  0.91050000  1
  C  C6  1  0.33610000  0.83530000  0.59180000  1
  C  C7  1  0.83530000  0.33610000  0.09180000  1
  C  C8  1  0.36630000  0.84390000  0.06950000  1
  C  C9  1  0.84390000  0.36630000  0.56950000  1
  C  C10  1  0.38310000  0.84210000  0.41510000  1
  C  C11  1  0.84210000  0.38310000  0.91510000  1
  C  C12  1  0.22030000  0.13970000  0.90150000  1
  C  C13  1  0.13970000  0.22030000  0.40150000  1
  C  C14  1  0.43750000  0.92310000  0.03240000  1
  C  C15  1  0.92310000  0.43750000  0.53240000  1
  C  C16  1  0.23740000  0.15600000  0.45220000  1
  C  C17  1  0.15600000  0.23740000  0.95220000  1
  C  C18  1  0.34400000  0.05040000  0.74150000  1
  C  C19  1  0.05040000  0.34400000  0.24150000  1
  C  C20  1  0.51780000  0.91180000  0.94260000  1
  C  C21  1  0.91180000  0.51780000  0.44260000  1
  C  C22  1  0.27650000  0.15410000  0.80140000  1
  C  C23  1  0.15410000  0.27650000  0.30140000  1
  C  C24  1  0.42100000  0.01160000  0.09070000  1
  C  C25  1  0.01160000  0.42100000  0.59070000  1
  C  C26  1  0.63910000  0.80190000  0.68850000  1
  C  C27  1  0.80190000  0.63910000  0.18850000  1
  C  C28  1  0.73150000  0.73510000  0.74280000  1
  C  C29  1  0.73510000  0.73150000  0.24280000  1
  C  C30  1  0.26850000  0.26490000  0.25720000  1
  C  C31  1  0.26490000  0.26850000  0.75720000  1
  C  C32  1  0.36090000  0.19810000  0.31150000  1
  C  C33  1  0.19810000  0.36090000  0.81150000  1
  C  C34  1  0.57900000  0.98840000  0.90930000  1
  C  C35  1  0.98840000  0.57900000  0.40930000  1
  C  C36  1  0.72350000  0.84590000  0.19860000  1
  C  C37  1  0.84590000  0.72350000  0.69860000  1
  C  C38  1  0.48220000  0.08820000  0.05740000  1
  C  C39  1  0.08820000  0.48220000  0.55740000  1
  C  C40  1  0.65600000  0.94960000  0.25850000  1
  C  C41  1  0.94960000  0.65600000  0.75850000  1
  C  C42  1  0.76260000  0.84400000  0.54780000  1
  C  C43  1  0.84400000  0.76260000  0.04780000  1
  C  C44  1  0.56250000  0.07690000  0.96760000  1
  C  C45  1  0.07690000  0.56250000  0.46760000  1
  C  C46  1  0.77970000  0.86030000  0.09850000  1
  C  C47  1  0.86030000  0.77970000  0.59850000  1
  C  C48  1  0.61690000  0.15790000  0.58490000  1
  C  C49  1  0.15790000  0.61690000  0.08490000  1
  C  C50  1  0.63370000  0.15610000  0.93050000  1
  C  C51  1  0.15610000  0.63370000  0.43050000  1
  C  C52  1  0.66390000  0.16470000  0.40820000  1
  C  C53  1  0.16470000  0.66390000  0.90820000  1
  C  C54  1  0.68720000  0.22200000  0.58950000  1
  C  C55  1  0.22200000  0.68720000  0.08950000  1
  C  C56  1  0.73390000  0.22890000  0.40550000  1
  C  C57  1  0.22890000  0.73390000  0.90550000  1
  C  C58  1  0.73990000  0.25390000  0.00250000  1
  C  C59  1  0.25390000  0.73990000  0.50250000  1
  Cd  Cd60  1  0.50000000  1.00000000  0.50000000  1
  Cd  Cd61  1  0.00000000  0.50000000  1.00000000  1
  H  H62  1  0.25200000  0.77360000  0.84210000  1
  H  H63  1  0.77360000  0.25200000  0.34210000  1
  H  H64  1  0.30560000  0.76100000  0.34680000  1
  H  H65  1  0.76100000  0.30560000  0.84680000  1
  H  H66  1  0.34250000  0.85250000  0.92870000  1
  H  H67  1  0.85250000  0.34250000  0.42870000  1
  H  H68  1  0.34350000  0.85430000  0.65460000  1
  H  H69  1  0.85430000  0.34350000  0.15460000  1
  H  H70  1  0.22540000  0.06460000  0.93510000  1
  H  H71  1  0.42440000  0.86560000  0.35290000  1
  H  H72  1  0.86560000  0.42440000  0.85290000  1
  H  H73  1  0.06460000  0.22540000  0.43510000  1
  H  H74  1  0.22510000  0.11990000  0.52030000  1
  H  H75  1  0.11990000  0.22510000  0.02030000  1
  H  H76  1  0.56300000  0.80960000  0.72080000  1
  H  H77  1  0.80960000  0.56300000  0.22080000  1
  H  H78  1  0.53080000  0.85140000  0.90390000  1
  H  H79  1  0.85140000  0.53080000  0.40390000  1
  H  H80  1  0.36850000  0.01910000  0.15230000  1
  H  H81  1  0.01910000  0.36850000  0.65230000  1
  H  H82  1  0.69730000  0.71710000  0.30980000  1
  H  H83  1  0.71710000  0.69730000  0.80980000  1
  H  H84  1  0.30270000  0.28290000  0.69020000  1
  H  H85  1  0.28290000  0.30270000  0.19020000  1
  H  H86  1  0.63150000  0.98090000  0.84770000  1
  H  H87  1  0.98090000  0.63150000  0.34770000  1
  H  H88  1  0.46920000  0.14860000  0.09610000  1
  H  H89  1  0.14860000  0.46920000  0.59610000  1
  H  H90  1  0.43700000  0.19040000  0.27920000  1
  H  H91  1  0.19040000  0.43700000  0.77920000  1
  H  H92  1  0.77490000  0.88010000  0.47970000  1
  H  H93  1  0.88010000  0.77490000  0.97970000  1
  H  H94  1  0.57560000  0.13440000  0.64710000  1
  H  H95  1  0.77460000  0.93540000  0.06490000  1
  H  H96  1  0.93540000  0.77460000  0.56490000  1
  H  H97  1  0.13440000  0.57560000  0.14710000  1
  H  H98  1  0.65650000  0.14570000  0.34540000  1
  H  H99  1  0.14570000  0.65650000  0.84540000  1
  H  H100  1  0.65750000  0.14750000  0.07130000  1
  H  H101  1  0.14750000  0.65750000  0.57130000  1
  H  H102  1  0.69440000  0.23900000  0.65320000  1
  H  H103  1  0.23900000  0.69440000  0.15320000  1
  H  H104  1  0.74800000  0.22640000  0.15790000  1
  H  H105  1  0.22640000  0.74800000  0.65790000  1
  N  N106  1  0.32560000  0.81900000  0.99040000  1
  N  N107  1  0.81900000  0.32560000  0.49040000  1
  N  N108  1  0.39530000  0.87270000  0.50350000  1
  N  N109  1  0.87270000  0.39530000  0.00350000  1
  N  N110  1  0.34640000  0.14320000  0.40910000  1
  N  N111  1  0.14320000  0.34640000  0.90910000  1
  N  N112  1  0.65360000  0.85680000  0.59090000  1
  N  N113  1  0.85680000  0.65360000  0.09090000  1
  N  N114  1  0.60470000  0.12730000  0.49650000  1
  N  N115  1  0.12730000  0.60470000  0.99650000  1
  N  N116  1  0.67440000  0.18100000  0.00960000  1
  N  N117  1  0.18100000  0.67440000  0.50960000  1
  O  O118  1  0.34530000  0.80870000  0.16050000  1
  O  O119  1  0.80870000  0.34530000  0.66050000  1
  O  O120  1  0.34720000  0.95060000  0.78580000  1
  O  O121  1  0.95060000  0.34720000  0.28580000  1
  O  O122  1  0.39150000  0.07410000  0.65040000  1
  O  O123  1  0.07410000  0.39150000  0.15040000  1
  O  O124  1  0.60850000  0.92590000  0.34960000  1
  O  O125  1  0.92590000  0.60850000  0.84960000  1
  O  O126  1  0.65280000  0.04940000  0.21420000  1
  O  O127  1  0.04940000  0.65280000  0.71420000  1
  O  O128  1  0.65470000  0.19130000  0.83950000  1
  O  O129  1  0.19130000  0.65470000  0.33950000  1
