# generated using pymatgen
data_Ga2P2H13C4N3O8
_symmetry_space_group_name_H-M   'P 1'
_cell_length_a   13.46640000
_cell_length_b   14.44490000
_cell_length_c   14.44481378
_cell_angle_alpha   110.80228561
_cell_angle_beta   108.10440862
_cell_angle_gamma   108.10500000
_symmetry_Int_Tables_number   1
_chemical_formula_structural   Ga2P2H13C4N3O8
_chemical_formula_sum   'Ga12 P12 H78 C24 N18 O48'
_cell_volume   2198.39116842
_cell_formula_units_Z   6
loop_
 _symmetry_equiv_pos_site_id
 _symmetry_equiv_pos_as_xyz
  1  'x, y, z'
loop_
 _atom_site_type_symbol
 _atom_site_label
 _atom_site_symmetry_multiplicity
 _atom_site_fract_x
 _atom_site_fract_y
 _atom_site_fract_z
 _atom_site_occupancy
  Ga  Ga0  1  0.85360000  0.37320000  0.82610000  1
  Ga  Ga1  1  0.51960000  0.54710000  0.37320000  1
  Ga  Ga2  1  0.73570000  0.40740000  0.54320000  1
  Ga  Ga3  1  0.67170000  0.86420000  0.40740000  1
  Ga  Ga4  1  0.19250000  0.45680000  0.86420000  1
  Ga  Ga5  1  0.02750000  0.17390000  0.54710000  1
  Ga  Ga6  1  0.97250000  0.82610000  0.45290000  1
  Ga  Ga7  1  0.80750000  0.54320000  0.13580000  1
  Ga  Ga8  1  0.32830000  0.13580000  0.59260000  1
  Ga  Ga9  1  0.26430000  0.59260000  0.45680000  1
  Ga  Ga10  1  0.48040000  0.45290000  0.62680000  1
  Ga  Ga11  1  0.14640000  0.62680000  0.17390000  1
  P  P12  1  0.39510000  0.68580000  0.33350000  1
  P  P13  1  0.46300000  0.34570000  0.39910000  1
  P  P14  1  0.06390000  0.60090000  0.94660000  1
  P  P15  1  0.93840000  0.33350000  0.64770000  1
  P  P16  1  0.70930000  0.64770000  0.31420000  1
  P  P17  1  0.11730000  0.05340000  0.65430000  1
  P  P18  1  0.88270000  0.94660000  0.34570000  1
  P  P19  1  0.29070000  0.35230000  0.68580000  1
  P  P20  1  0.06160000  0.66650000  0.35230000  1
  P  P21  1  0.93610000  0.39910000  0.05340000  1
  P  P22  1  0.53700000  0.65430000  0.60090000  1
  P  P23  1  0.60490000  0.31420000  0.66650000  1
  H  H24  1  0.61510000  0.96870000  0.59420000  1
  H  H25  1  0.71400000  0.09350000  0.66890000  1
  H  H26  1  0.75100000  0.57080000  0.70140000  1
  H  H27  1  0.77520000  0.97090000  0.71290000  1
  H  H28  1  0.52030000  0.97740000  0.42740000  1
  H  H29  1  0.86190000  0.56720000  0.75000000  1
  H  H30  1  0.61510000  0.11350000  0.48180000  1
  H  H31  1  0.17000000  0.35830000  0.03530000  1
  H  H32  1  0.70530000  0.81720000  0.56720000  1
  H  H33  1  0.81170000  0.67700000  0.64170000  1
  H  H34  1  0.04960000  0.29860000  0.86940000  1
  H  H35  1  0.86530000  0.03530000  0.67700000  1
  H  H36  1  0.93770000  0.71290000  0.74200000  1
  H  H37  1  0.19570000  0.25800000  0.97090000  1
  H  H38  1  0.30790000  0.54140000  0.08230000  1
  H  H39  1  0.77440000  0.08230000  0.54090000  1
  H  H40  1  0.81980000  0.86940000  0.57080000  1
  H  H41  1  0.60550000  0.23720000  0.34980000  1
  H  H42  1  0.55270000  0.01600000  0.28320000  1
  H  H43  1  0.52230000  0.84740000  0.23850000  1
  H  H44  1  0.37950000  0.42460000  0.09350000  1
  H  H45  1  0.11190000  0.25000000  0.81720000  1
  H  H46  1  0.36970000  0.70860000  0.06750000  1
  H  H47  1  0.76650000  0.54090000  0.45860000  1
  H  H48  1  0.71620000  0.23850000  0.39110000  1
  H  H49  1  0.69780000  0.06750000  0.35890000  1
  H  H50  1  0.97910000  0.59420000  0.62550000  1
  H  H51  1  0.25570000  0.65020000  0.88740000  1
  H  H52  1  0.66110000  0.35890000  0.29140000  1
  H  H53  1  0.95490000  0.66890000  0.57540000  1
  H  H54  1  0.35360000  0.37450000  0.96870000  1
  H  H55  1  0.49840000  0.63170000  0.11350000  1
  H  H56  1  0.63170000  0.88740000  0.23720000  1
  H  H57  1  0.46330000  0.73280000  0.01600000  1
  H  H58  1  0.90710000  0.42740000  0.45000000  1
  H  H59  1  0.73050000  0.28320000  0.26720000  1
  H  H60  1  0.32510000  0.60890000  0.84740000  1
  H  H61  1  0.45710000  0.55000000  0.97740000  1
  H  H62  1  0.86670000  0.48180000  0.36830000  1
  H  H63  1  0.13330000  0.51820000  0.63170000  1
  H  H64  1  0.54290000  0.45000000  0.02260000  1
  H  H65  1  0.67490000  0.39110000  0.15260000  1
  H  H66  1  0.26950000  0.71680000  0.73280000  1
  H  H67  1  0.09290000  0.57260000  0.55000000  1
  H  H68  1  0.53670000  0.26720000  0.98400000  1
  H  H69  1  0.36830000  0.11260000  0.76280000  1
  H  H70  1  0.50160000  0.36830000  0.88650000  1
  H  H71  1  0.64640000  0.62550000  0.03130000  1
  H  H72  1  0.04510000  0.33110000  0.42460000  1
  H  H73  1  0.33890000  0.64110000  0.70860000  1
  H  H74  1  0.74430000  0.34980000  0.11260000  1
  H  H75  1  0.02090000  0.40580000  0.37450000  1
  H  H76  1  0.30220000  0.93250000  0.64110000  1
  H  H77  1  0.28380000  0.76150000  0.60890000  1
  H  H78  1  0.23350000  0.45910000  0.54140000  1
  H  H79  1  0.63030000  0.29140000  0.93250000  1
  H  H80  1  0.88810000  0.75000000  0.18280000  1
  H  H81  1  0.62050000  0.57540000  0.90650000  1
  H  H82  1  0.47770000  0.15260000  0.76150000  1
  H  H83  1  0.44730000  0.98400000  0.71680000  1
  H  H84  1  0.39450000  0.76280000  0.65020000  1
  H  H85  1  0.18020000  0.13060000  0.42920000  1
  H  H86  1  0.22560000  0.91770000  0.45910000  1
  H  H87  1  0.69210000  0.45860000  0.91770000  1
  H  H88  1  0.80430000  0.74200000  0.02910000  1
  H  H89  1  0.06230000  0.28710000  0.25800000  1
  H  H90  1  0.13470000  0.96470000  0.32300000  1
  H  H91  1  0.95040000  0.70140000  0.13060000  1
  H  H92  1  0.18830000  0.32300000  0.35830000  1
  H  H93  1  0.29470000  0.18280000  0.43280000  1
  H  H94  1  0.83000000  0.64170000  0.96470000  1
  H  H95  1  0.38490000  0.88650000  0.51820000  1
  H  H96  1  0.13810000  0.43280000  0.25000000  1
  H  H97  1  0.47970000  0.02260000  0.57260000  1
  H  H98  1  0.22480000  0.02910000  0.28710000  1
  H  H99  1  0.24900000  0.42920000  0.29860000  1
  H  H100  1  0.28600000  0.90650000  0.33110000  1
  H  H101  1  0.38490000  0.03130000  0.40580000  1
  C  C102  1  0.69480000  0.01990000  0.61290000  1
  C  C103  1  0.78080000  0.98040000  0.65390000  1
  C  C104  1  0.60700000  0.03950000  0.44270000  1
  C  C105  1  0.87310000  0.65390000  0.67350000  1
  C  C106  1  0.19960000  0.32650000  0.98040000  1
  C  C107  1  0.61160000  0.01010000  0.33350000  1
  C  C108  1  0.32510000  0.40700000  0.01990000  1
  C  C109  1  0.91810000  0.61290000  0.59300000  1
  C  C110  1  0.39850000  0.67660000  0.01010000  1
  C  C111  1  0.43250000  0.59680000  0.03950000  1
  C  C112  1  0.72190000  0.33350000  0.32340000  1
  C  C113  1  0.83570000  0.44270000  0.40320000  1
  C  C114  1  0.16430000  0.55730000  0.59680000  1
  C  C115  1  0.27810000  0.66650000  0.67660000  1
  C  C116  1  0.56750000  0.40320000  0.96050000  1
  C  C117  1  0.60150000  0.32340000  0.98990000  1
  C  C118  1  0.08190000  0.38710000  0.40700000  1
  C  C119  1  0.67490000  0.59300000  0.98010000  1
  C  C120  1  0.38840000  0.98990000  0.66650000  1
  C  C121  1  0.80040000  0.67350000  0.01960000  1
  C  C122  1  0.12690000  0.34610000  0.32650000  1
  C  C123  1  0.39300000  0.96050000  0.55730000  1
  C  C124  1  0.21920000  0.01960000  0.34610000  1
  C  C125  1  0.30520000  0.98010000  0.38710000  1
  N  N126  1  0.80880000  0.55970000  0.68700000  1
  N  N127  1  0.69400000  0.01910000  0.51110000  1
  N  N128  1  0.75090000  0.87270000  0.55970000  1
  N  N129  1  0.12180000  0.31300000  0.87270000  1
  N  N130  1  0.68670000  0.28070000  0.38700000  1
  N  N131  1  0.32510000  0.50800000  0.01910000  1
  N  N132  1  0.59400000  0.89370000  0.28070000  1
  N  N133  1  0.81710000  0.51110000  0.49200000  1
  N  N134  1  0.29970000  0.61300000  0.89370000  1
  N  N135  1  0.70030000  0.38700000  0.10630000  1
  N  N136  1  0.18290000  0.48890000  0.50800000  1
  N  N137  1  0.40600000  0.10630000  0.71930000  1
  N  N138  1  0.67490000  0.49200000  0.98090000  1
  N  N139  1  0.31330000  0.71930000  0.61300000  1
  N  N140  1  0.87820000  0.68700000  0.12730000  1
  N  N141  1  0.24910000  0.12730000  0.44030000  1
  N  N142  1  0.30600000  0.98090000  0.48890000  1
  N  N143  1  0.19120000  0.44030000  0.31300000  1
  O  O144  1  0.09060000  0.66800000  0.07120000  1
  O  O145  1  0.92610000  0.52390000  0.87360000  1
  O  O146  1  0.66130000  0.31120000  0.58970000  1
  O  O147  1  0.59780000  0.65030000  0.52390000  1
  O  O148  1  0.30590000  0.67250000  0.22440000  1
  O  O149  1  0.42260000  0.40320000  0.33200000  1
  O  O150  1  0.42870000  0.22750000  0.32200000  1
  O  O151  1  0.41300000  0.58040000  0.29490000  1
  O  O152  1  0.50960000  0.79290000  0.39140000  1
  O  O153  1  0.59630000  0.42340000  0.47680000  1
  O  O154  1  0.88190000  0.29490000  0.71450000  1
  O  O155  1  0.11950000  0.52320000  0.94660000  1
  O  O156  1  0.10670000  0.67800000  0.90550000  1
  O  O157  1  0.88180000  0.39140000  0.59850000  1
  O  O158  1  0.63340000  0.55190000  0.32750000  1
  O  O159  1  0.64990000  0.72150000  0.31120000  1
  O  O160  1  0.07160000  0.41030000  0.72150000  1
  O  O161  1  0.91850000  0.22440000  0.55190000  1
  O  O162  1  0.05250000  0.12640000  0.65030000  1
  O  O163  1  0.82710000  0.94660000  0.42340000  1
  O  O164  1  0.83260000  0.71450000  0.41960000  1
  O  O165  1  0.01940000  0.92880000  0.59680000  1
  O  O166  1  0.20120000  0.09450000  0.77250000  1
  O  O167  1  0.28330000  0.40150000  0.79290000  1
  O  O168  1  0.71670000  0.59850000  0.20710000  1
  O  O169  1  0.79880000  0.90550000  0.22750000  1
  O  O170  1  0.98060000  0.07120000  0.40320000  1
  O  O171  1  0.16740000  0.28550000  0.58040000  1
  O  O172  1  0.17290000  0.05340000  0.57660000  1
  O  O173  1  0.94750000  0.87360000  0.34970000  1
  O  O174  1  0.08150000  0.77560000  0.44810000  1
  O  O175  1  0.92840000  0.58970000  0.27850000  1
  O  O176  1  0.35010000  0.27850000  0.68880000  1
  O  O177  1  0.36660000  0.44810000  0.67250000  1
  O  O178  1  0.11820000  0.60860000  0.40150000  1
  O  O179  1  0.89330000  0.32200000  0.09450000  1
  O  O180  1  0.88050000  0.47680000  0.05340000  1
  O  O181  1  0.11810000  0.70510000  0.28550000  1
  O  O182  1  0.40370000  0.57660000  0.52320000  1
  O  O183  1  0.49040000  0.20710000  0.60860000  1
  O  O184  1  0.58700000  0.41960000  0.70510000  1
  O  O185  1  0.57130000  0.77250000  0.67800000  1
  O  O186  1  0.57740000  0.59680000  0.66800000  1
  O  O187  1  0.69410000  0.32750000  0.77560000  1
  O  O188  1  0.40220000  0.34970000  0.47610000  1
  O  O189  1  0.33870000  0.68880000  0.41030000  1
  O  O190  1  0.07390000  0.47610000  0.12640000  1
  O  O191  1  0.90940000  0.33200000  0.92880000  1
