# generated using pymatgen
data_TbH2(CO)7
_symmetry_space_group_name_H-M   'P 1'
_cell_length_a   7.31080000
_cell_length_b   9.72200000
_cell_length_c   14.68250000
_cell_angle_alpha   90.00000000
_cell_angle_beta   99.38170000
_cell_angle_gamma   90.00000000
_symmetry_Int_Tables_number   1
_chemical_formula_structural   TbH2(CO)7
_chemical_formula_sum   'Tb4 H8 C28 O28'
_cell_volume   1029.60899228
_cell_formula_units_Z   4
loop_
 _symmetry_equiv_pos_site_id
 _symmetry_equiv_pos_as_xyz
  1  'x, y, z'
loop_
 _atom_site_type_symbol
 _atom_site_label
 _atom_site_symmetry_multiplicity
 _atom_site_fract_x
 _atom_site_fract_y
 _atom_site_fract_z
 _atom_site_occupancy
  Tb  Tb0  1  0.13728000  0.05489000  0.85767000  1
  Tb  Tb1  1  0.36272000  0.55489000  0.64233000  1
  Tb  Tb2  1  0.63728000  0.44511000  0.35767000  1
  Tb  Tb3  1  0.86272000  0.94511000  0.14233000  1
  H  H4  1  0.17700000  0.83520000  0.45460000  1
  H  H5  1  0.22290000  0.54670000  0.12490000  1
  H  H6  1  0.27710000  0.04670000  0.37510000  1
  H  H7  1  0.32300000  0.33520000  0.04540000  1
  H  H8  1  0.67700000  0.66480000  0.95460000  1
  H  H9  1  0.72290000  0.95330000  0.62490000  1
  H  H10  1  0.77710000  0.45330000  0.87510000  1
  H  H11  1  0.82300000  0.16480000  0.54540000  1
  C  C12  1  0.04330000  0.53510000  0.46160000  1
  C  C13  1  0.10670000  0.77410000  0.99680000  1
  C  C14  1  0.18720000  0.63560000  0.99630000  1
  C  C15  1  0.18740000  0.87530000  0.65310000  1
  C  C16  1  0.21420000  0.91900000  0.48200000  1
  C  C17  1  0.22570000  0.95220000  0.57230000  1
  C  C18  1  0.22960000  0.53760000  0.06250000  1
  C  C19  1  0.27040000  0.03760000  0.43750000  1
  C  C20  1  0.27430000  0.45220000  0.92770000  1
  C  C21  1  0.28580000  0.41900000  0.01800000  1
  C  C22  1  0.31260000  0.37530000  0.84690000  1
  C  C23  1  0.31280000  0.13560000  0.50370000  1
  C  C24  1  0.39330000  0.27410000  0.50320000  1
  C  C25  1  0.45670000  0.03510000  0.03840000  1
  C  C26  1  0.54330000  0.96490000  0.96160000  1
  C  C27  1  0.60670000  0.72590000  0.49680000  1
  C  C28  1  0.68720000  0.86440000  0.49630000  1
  C  C29  1  0.68740000  0.62470000  0.15310000  1
  C  C30  1  0.71420000  0.58100000  0.98200000  1
  C  C31  1  0.72570000  0.54780000  0.07230000  1
  C  C32  1  0.72960000  0.96240000  0.56250000  1
  C  C33  1  0.77040000  0.46240000  0.93750000  1
  C  C34  1  0.77430000  0.04780000  0.42770000  1
  C  C35  1  0.78580000  0.08100000  0.51800000  1
  C  C36  1  0.81260000  0.12470000  0.34690000  1
  C  C37  1  0.81280000  0.36440000  0.00370000  1
  C  C38  1  0.89330000  0.22590000  0.00320000  1
  C  C39  1  0.95670000  0.46490000  0.53840000  1
  O  O40  1  0.05660000  0.45400000  0.61600000  1
  O  O41  1  0.05943000  0.81210000  0.07073000  1
  O  O42  1  0.08866000  0.84180000  0.92326000  1
  O  O43  1  0.16465000  0.74620000  0.64355000  1
  O  O44  1  0.17980000  0.93900000  0.72600000  1
  O  O45  1  0.20750000  0.57550000  0.48220000  1
  O  O46  1  0.21652000  0.58620000  0.91312000  1
  O  O47  1  0.28348000  0.08620000  0.58688000  1
  O  O48  1  0.29250000  0.07550000  0.01780000  1
  O  O49  1  0.32020000  0.43900000  0.77400000  1
  O  O50  1  0.33535000  0.24620000  0.85645000  1
  O  O51  1  0.41134000  0.34180000  0.57674000  1
  O  O52  1  0.44057000  0.31210000  0.42927000  1
  O  O53  1  0.44340000  0.95400000  0.88400000  1
  O  O54  1  0.55660000  0.04600000  0.11600000  1
  O  O55  1  0.55943000  0.68790000  0.57073000  1
  O  O56  1  0.58866000  0.65820000  0.42326000  1
  O  O57  1  0.66465000  0.75380000  0.14355000  1
  O  O58  1  0.67980000  0.56100000  0.22600000  1
  O  O59  1  0.70750000  0.92450000  0.98220000  1
  O  O60  1  0.71652000  0.91380000  0.41312000  1
  O  O61  1  0.78348000  0.41380000  0.08688000  1
  O  O62  1  0.79250000  0.42450000  0.51780000  1
  O  O63  1  0.82020000  0.06100000  0.27400000  1
  O  O64  1  0.83535000  0.25380000  0.35645000  1
  O  O65  1  0.91134000  0.15820000  0.07674000  1
  O  O66  1  0.94057000  0.18790000  0.92927000  1
  O  O67  1  0.94340000  0.54600000  0.38400000  1
