# generated using pymatgen
data_ZnH6(CN2)4
_symmetry_space_group_name_H-M   'P 1'
_cell_length_a   9.53003353
_cell_length_b   9.53003353
_cell_length_c   9.56310000
_cell_angle_alpha   114.71778772
_cell_angle_beta   114.71778772
_cell_angle_gamma   91.56237041
_symmetry_Int_Tables_number   1
_chemical_formula_structural   ZnH6(CN2)4
_chemical_formula_sum   'Zn2 H12 C8 N16'
_cell_volume   694.84178874
_cell_formula_units_Z   2
loop_
 _symmetry_equiv_pos_site_id
 _symmetry_equiv_pos_as_xyz
  1  'x, y, z'
loop_
 _atom_site_type_symbol
 _atom_site_label
 _atom_site_symmetry_multiplicity
 _atom_site_fract_x
 _atom_site_fract_y
 _atom_site_fract_z
 _atom_site_occupancy
  C  C0  1  0.54380000  0.39020000  0.57770000  1
  C  C1  1  0.39020000  0.54380000  0.07770000  1
  C  C2  1  0.38780000  0.35680000  0.42820000  1
  C  C3  1  0.35680000  0.38780000  0.92820000  1
  C  C4  1  0.28110000  0.84770000  0.86770000  1
  C  C5  1  0.84770000  0.28110000  0.36770000  1
  C  C6  1  0.12010000  0.88330000  0.82800000  1
  C  C7  1  0.88330000  0.12010000  0.32800000  1
  H  H8  1  0.61840000  0.35300000  0.53610000  1
  H  H9  1  0.35300000  0.61840000  0.03610000  1
  H  H10  1  0.85460000  0.06180000  0.20640000  1
  H  H11  1  0.06180000  0.85460000  0.70640000  1
  H  H12  1  0.82300000  0.06260000  0.35490000  1
  H  H13  1  0.06260000  0.82300000  0.85490000  1
  H  H14  1  0.53310000  0.33650000  0.63940000  1
  H  H15  1  0.33650000  0.53310000  0.13940000  1
  H  H16  1  0.13330000  0.99490000  0.89750000  1
  H  H17  1  0.99490000  0.13330000  0.39750000  1
  H  H18  1  0.50290000  0.58170000  0.15490000  1
  H  H19  1  0.58170000  0.50290000  0.65490000  1
  N  N20  1  0.39140000  0.25600000  0.93780000  1
  N  N21  1  0.25600000  0.39140000  0.43780000  1
  N  N22  1  0.35430000  0.28430000  0.26180000  1
  N  N23  1  0.28430000  0.35430000  0.76180000  1
  N  N24  1  0.33730000  0.14070000  0.77040000  1
  N  N25  1  0.14070000  0.33730000  0.27040000  1
  N  N26  1  0.27490000  0.19930000  0.66520000  1
  N  N27  1  0.19930000  0.27490000  0.16520000  1
  N  N28  1  0.53360000  0.87500000  0.97390000  1
  N  N29  1  0.87500000  0.53360000  0.47390000  1
  N  N30  1  0.41930000  0.95570000  0.97930000  1
  N  N31  1  0.95570000  0.41930000  0.47930000  1
  N  N32  1  0.46740000  0.72800000  0.86310000  1
  N  N33  1  0.72800000  0.46740000  0.36310000  1
  N  N34  1  0.30550000  0.70630000  0.79110000  1
  N  N35  1  0.70630000  0.30550000  0.29110000  1
  Zn  Zn36  1  0.47715000  0.19005000  0.12990000  1
  Zn  Zn37  1  0.19005000  0.47715000  0.62990000  1
