# generated using pymatgen
data_AgH12(C3N)6
_symmetry_space_group_name_H-M   'P 1'
_cell_length_a   13.77221993
_cell_length_b   13.77221993
_cell_length_c   24.56313403
_cell_angle_alpha   101.95225406
_cell_angle_beta   101.52388630
_cell_angle_gamma   105.92214288
_symmetry_Int_Tables_number   1
_chemical_formula_structural   AgH12(C3N)6
_chemical_formula_sum   'Ag8 H96 C144 N48'
_cell_volume   4216.94656798
_cell_formula_units_Z   8
loop_
 _symmetry_equiv_pos_site_id
 _symmetry_equiv_pos_as_xyz
  1  'x, y, z'
loop_
 _atom_site_type_symbol
 _atom_site_label
 _atom_site_symmetry_multiplicity
 _atom_site_fract_x
 _atom_site_fract_y
 _atom_site_fract_z
 _atom_site_occupancy
  Ag  Ag0  1  0.61282000  0.43411000  0.13275000  1
  Ag  Ag1  1  0.69864000  0.01993000  0.63275000  1
  Ag  Ag2  1  0.42271000  0.20039000  0.13326000  1
  Ag  Ag3  1  0.93287000  0.21055000  0.63326000  1
  Ag  Ag4  1  0.57729000  0.79961000  0.86674000  1
  Ag  Ag5  1  0.06713000  0.78945000  0.36674000  1
  Ag  Ag6  1  0.38718000  0.56589000  0.86725000  1
  Ag  Ag7  1  0.30136000  0.98007000  0.36725000  1
  C  C8  1  0.07400000  0.47570000  0.40570000  1
  C  C9  1  0.93000000  0.83170000  0.90570000  1
  C  C10  1  0.11910000  0.60660000  0.49510000  1
  C  C11  1  0.88850000  0.87600000  0.99510000  1
  C  C12  1  0.36070000  0.80750000  0.49800000  1
  C  C13  1  0.69050000  0.63730000  0.99800000  1
  C  C14  1  0.37950000  0.44330000  0.11720000  1
  C  C15  1  0.67390000  0.23770000  0.61720000  1
  C  C16  1  0.34390000  0.68820000  0.41010000  1
  C  C17  1  0.72190000  0.56620000  0.91010000  1
  C  C18  1  0.40740000  0.37350000  0.03210000  1
  C  C19  1  0.65860000  0.12470000  0.53210000  1
  C  C20  1  0.10580000  0.50470000  0.46550000  1
  C  C21  1  0.96080000  0.85970000  0.96550000  1
  C  C22  1  0.17220000  0.18230000  0.12190000  1
  C  C23  1  0.21170000  0.13630000  0.03640000  1
  C  C24  1  0.90010000  0.32470000  0.53640000  1
  C  C25  1  0.93960000  0.44970000  0.62190000  1
  C  C26  1  0.36100000  0.71020000  0.46840000  1
  C  C27  1  0.75820000  0.60740000  0.96840000  1
  C  C28  1  0.12730000  0.43110000  0.49940000  1
  C  C29  1  0.06830000  0.87210000  0.99940000  1
  C  C30  1  0.37960000  0.63340000  0.50120000  1
  C  C31  1  0.86780000  0.62160000  0.00120000  1
  C  C32  1  0.46340000  0.37640000  0.25680000  1
  C  C33  1  0.88040000  0.29340000  0.75680000  1
  C  C34  1  0.63370000  0.81090000  0.52660000  1
  C  C35  1  0.71570000  0.39290000  0.02660000  1
  C  C36  1  0.22300000  0.54500000  0.67980000  1
  C  C37  1  0.13480000  0.95680000  0.17980000  1
  C  C38  1  0.18240000  0.90890000  0.08670000  1
  C  C39  1  0.17780000  0.40430000  0.58670000  1
  C  C40  1  0.23430000  0.87620000  0.00550000  1
  C  C41  1  0.12930000  0.27120000  0.50550000  1
  C  C42  1  0.29630000  0.84150000  0.91720000  1
  C  C43  1  0.07570000  0.12090000  0.41720000  1
  C  C44  1  0.51190000  0.14840000  0.02170000  1
  C  C45  1  0.87330000  0.00980000  0.52170000  1
  C  C46  1  0.68820000  0.06020000  0.75840000  1
  C  C47  1  0.69820000  0.57020000  0.25840000  1
  C  C48  1  0.49880000  0.41900000  0.31600000  1
  C  C49  1  0.89700000  0.31720000  0.81600000  1
  C  C50  1  0.61900000  0.70990000  0.49610000  1
  C  C51  1  0.78620000  0.37710000  0.99610000  1
  C  C52  1  0.31340000  0.31960000  0.41400000  1
  C  C53  1  0.09440000  0.60060000  0.91400000  1
  C  C54  1  0.37730000  0.47090000  0.50360000  1
  C  C55  1  0.03270000  0.62630000  0.00360000  1
  C  C56  1  0.43620000  0.60260000  0.58640000  1
  C  C57  1  0.98380000  0.65020000  0.08640000  1
  C  C58  1  0.26480000  0.58100000  0.73900000  1
  C  C59  1  0.15800000  0.97420000  0.23900000  1
  C  C60  1  0.22050000  0.44690000  0.65100000  1
  C  C61  1  0.20410000  0.93050000  0.15100000  1
  C  C62  1  0.50250000  0.75020000  0.67670000  1
  C  C63  1  0.92650000  0.67420000  0.17670000  1
  C  C64  1  0.31600000  0.86320000  0.97660000  1
  C  C65  1  0.11340000  0.16060000  0.47660000  1
  C  C66  1  0.37310000  0.82410000  0.89120000  1
  C  C67  1  0.06710000  0.01810000  0.39120000  1
  C  C68  1  0.70540000  0.07850000  0.81750000  1
  C  C69  1  0.73900000  0.61210000  0.31750000  1
  C  C70  1  0.58440000  0.13040000  0.99160000  1
  C  C71  1  0.86120000  0.90720000  0.49160000  1
  C  C72  1  0.35640000  0.35870000  0.47330000  1
  C  C73  1  0.11460000  0.61690000  0.97330000  1
  C  C74  1  0.30040000  0.21700000  0.38780000  1
  C  C75  1  0.17080000  0.58740000  0.88780000  1
  C  C76  1  0.47950000  0.64350000  0.65020000  1
  C  C77  1  0.00670000  0.67070000  0.15020000  1
  C  C78  1  0.53970000  0.78470000  0.73600000  1
  C  C79  1  0.95130000  0.69630000  0.23600000  1
  C  C80  1  0.46030000  0.21530000  0.26400000  1
  C  C81  1  0.04870000  0.30370000  0.76400000  1
  C  C82  1  0.52050000  0.35650000  0.34980000  1
  C  C83  1  0.99330000  0.32930000  0.84980000  1
  C  C84  1  0.69960000  0.78300000  0.61220000  1
  C  C85  1  0.82920000  0.41260000  0.11220000  1
  C  C86  1  0.64360000  0.64130000  0.52670000  1
  C  C87  1  0.88540000  0.38310000  0.02670000  1
  C  C88  1  0.41560000  0.86960000  0.00840000  1
  C  C89  1  0.13880000  0.09280000  0.50840000  1
  C  C90  1  0.29460000  0.92150000  0.18250000  1
  C  C91  1  0.26100000  0.38790000  0.68250000  1
  C  C92  1  0.62690000  0.17590000  0.10880000  1
  C  C93  1  0.93290000  0.98190000  0.60880000  1
  C  C94  1  0.68400000  0.13680000  0.02340000  1
  C  C95  1  0.88660000  0.83940000  0.52340000  1
  C  C96  1  0.49750000  0.24980000  0.32330000  1
  C  C97  1  0.07350000  0.32580000  0.82330000  1
  C  C98  1  0.77950000  0.55310000  0.34900000  1
  C  C99  1  0.79590000  0.06950000  0.84900000  1
  C  C100  1  0.73520000  0.41900000  0.26100000  1
  C  C101  1  0.84200000  0.02580000  0.76100000  1
  C  C102  1  0.56380000  0.39740000  0.41360000  1
  C  C103  1  0.01620000  0.34980000  0.91360000  1
  C  C104  1  0.62270000  0.52910000  0.49640000  1
  C  C105  1  0.96730000  0.37370000  0.99640000  1
  C  C106  1  0.68660000  0.68040000  0.58600000  1
  C  C107  1  0.90560000  0.39940000  0.08600000  1
  C  C108  1  0.38100000  0.29010000  0.50390000  1
  C  C109  1  0.21380000  0.62290000  0.00390000  1
  C  C110  1  0.50120000  0.58100000  0.68400000  1
  C  C111  1  0.10300000  0.68280000  0.18400000  1
  C  C112  1  0.31180000  0.93980000  0.24160000  1
  C  C113  1  0.30180000  0.42980000  0.74160000  1
  C  C114  1  0.48810000  0.85160000  0.97830000  1
  C  C115  1  0.12670000  0.99020000  0.47830000  1
  C  C116  1  0.70370000  0.15850000  0.08280000  1
  C  C117  1  0.92430000  0.87910000  0.58280000  1
  C  C118  1  0.76570000  0.12380000  0.99450000  1
  C  C119  1  0.87070000  0.72880000  0.49450000  1
  C  C120  1  0.81760000  0.09110000  0.91330000  1
  C  C121  1  0.82220000  0.59570000  0.41330000  1
  C  C122  1  0.77700000  0.45500000  0.32020000  1
  C  C123  1  0.86520000  0.04320000  0.82020000  1
  C  C124  1  0.36630000  0.18910000  0.47340000  1
  C  C125  1  0.28430000  0.60710000  0.97340000  1
  C  C126  1  0.53660000  0.62360000  0.74320000  1
  C  C127  1  0.11960000  0.70660000  0.24320000  1
  C  C128  1  0.62040000  0.36660000  0.49880000  1
  C  C129  1  0.13220000  0.37840000  0.99880000  1
  C  C130  1  0.87270000  0.56890000  0.50060000  1
  C  C131  1  0.93170000  0.12790000  0.00060000  1
  C  C132  1  0.63900000  0.28980000  0.53160000  1
  C  C133  1  0.24180000  0.39260000  0.03160000  1
  C  C134  1  0.78830000  0.86370000  0.96360000  1
  C  C135  1  0.82780000  0.81770000  0.87810000  1
  C  C136  1  0.06040000  0.55030000  0.37810000  1
  C  C137  1  0.09990000  0.67530000  0.46360000  1
  C  C138  1  0.89420000  0.49530000  0.53450000  1
  C  C139  1  0.03920000  0.14030000  0.03450000  1
  C  C140  1  0.59260000  0.62650000  0.96790000  1
  C  C141  1  0.34140000  0.87530000  0.46790000  1
  C  C142  1  0.65610000  0.31180000  0.58990000  1
  C  C143  1  0.27810000  0.43380000  0.08990000  1
  C  C144  1  0.62050000  0.55670000  0.88280000  1
  C  C145  1  0.32610000  0.76230000  0.38280000  1
  C  C146  1  0.63930000  0.19250000  0.50200000  1
  C  C147  1  0.30950000  0.36270000  0.00200000  1
  C  C148  1  0.88090000  0.39340000  0.50490000  1
  C  C149  1  0.11150000  0.12400000  0.00490000  1
  C  C150  1  0.92600000  0.52430000  0.59430000  1
  C  C151  1  0.07000000  0.16830000  0.09430000  1
  H  H152  1  0.06200000  0.40720000  0.38460000  1
  H  H153  1  0.97740000  0.82260000  0.88460000  1
  H  H154  1  0.14060000  0.62850000  0.53530000  1
  H  H155  1  0.90680000  0.89470000  0.03530000  1
  H  H156  1  0.37370000  0.82600000  0.53810000  1
  H  H157  1  0.71210000  0.66440000  0.03810000  1
  H  H158  1  0.40440000  0.47320000  0.15700000  1
  H  H159  1  0.68380000  0.25260000  0.65700000  1
  H  H160  1  0.34430000  0.62410000  0.38880000  1
  H  H161  1  0.76470000  0.54450000  0.88880000  1
  H  H162  1  0.45200000  0.35320000  0.01160000  1
  H  H163  1  0.65840000  0.05960000  0.51160000  1
  H  H164  1  0.19350000  0.20520000  0.16210000  1
  H  H165  1  0.95690000  0.46860000  0.66210000  1
  H  H166  1  0.25970000  0.12420000  0.01630000  1
  H  H167  1  0.89210000  0.25660000  0.51630000  1
  H  H168  1  0.61400000  0.85530000  0.50610000  1
  H  H169  1  0.65080000  0.39210000  0.00610000  1
  H  H170  1  0.45190000  0.42060000  0.23410000  1
  H  H171  1  0.81350000  0.28220000  0.73410000  1
  H  H172  1  0.19680000  0.58660000  0.65960000  1
  H  H173  1  0.07300000  0.96280000  0.15960000  1
  H  H174  1  0.23200000  0.83830000  0.89470000  1
  H  H175  1  0.05640000  0.16270000  0.39470000  1
  H  H176  1  0.62730000  0.06690000  0.73740000  1
  H  H177  1  0.67050000  0.61010000  0.23740000  1
  H  H178  1  0.44590000  0.14400000  0.00070000  1
  H  H179  1  0.85670000  0.05480000  0.50070000  1
  H  H180  1  0.29360000  0.36230000  0.39230000  1
  H  H181  1  0.03000000  0.59870000  0.89230000  1
  H  H182  1  0.50780000  0.48910000  0.33250000  1
  H  H183  1  0.84340000  0.32470000  0.83250000  1
  H  H184  1  0.49300000  0.79640000  0.65500000  1
  H  H185  1  0.85860000  0.66200000  0.15500000  1
  H  H186  1  0.59310000  0.68790000  0.45600000  1
  H  H187  1  0.76810000  0.36290000  0.95600000  1
  H  H188  1  0.26630000  0.64740000  0.75810000  1
  H  H189  1  0.11070000  0.99180000  0.25810000  1
  H  H190  1  0.65730000  0.09660000  0.83570000  1
  H  H191  1  0.73910000  0.67840000  0.33570000  1
  H  H192  1  0.35850000  0.80880000  0.85110000  1
  H  H193  1  0.04230000  0.99260000  0.35110000  1
  H  H194  1  0.56710000  0.11440000  0.95150000  1
  H  H195  1  0.83710000  0.88440000  0.45150000  1
  H  H196  1  0.27280000  0.19200000  0.34780000  1
  H  H197  1  0.15580000  0.57500000  0.84780000  1
  H  H198  1  0.55520000  0.85580000  0.75360000  1
  H  H199  1  0.89780000  0.69840000  0.25360000  1
  H  H200  1  0.44480000  0.14420000  0.24640000  1
  H  H201  1  0.10220000  0.30160000  0.74640000  1
  H  H202  1  0.72720000  0.80800000  0.65220000  1
  H  H203  1  0.84420000  0.42500000  0.15220000  1
  H  H204  1  0.43290000  0.88560000  0.04850000  1
  H  H205  1  0.16290000  0.11560000  0.54850000  1
  H  H206  1  0.64150000  0.19120000  0.14890000  1
  H  H207  1  0.95770000  0.00740000  0.64890000  1
  H  H208  1  0.34270000  0.90340000  0.16430000  1
  H  H209  1  0.26090000  0.32160000  0.66430000  1
  H  H210  1  0.73370000  0.35260000  0.24190000  1
  H  H211  1  0.88930000  0.00820000  0.74190000  1
  H  H212  1  0.40690000  0.31210000  0.54400000  1
  H  H213  1  0.23190000  0.63710000  0.04400000  1
  H  H214  1  0.50700000  0.20360000  0.34500000  1
  H  H215  1  0.14140000  0.33800000  0.84500000  1
  H  H216  1  0.49220000  0.51090000  0.66750000  1
  H  H217  1  0.15660000  0.67530000  0.16750000  1
  H  H218  1  0.70640000  0.63770000  0.60770000  1
  H  H219  1  0.97000000  0.40130000  0.10770000  1
  H  H220  1  0.55410000  0.85600000  0.99930000  1
  H  H221  1  0.14330000  0.94520000  0.49930000  1
  H  H222  1  0.37270000  0.93310000  0.26260000  1
  H  H223  1  0.32950000  0.38990000  0.76260000  1
  H  H224  1  0.76800000  0.16170000  0.10530000  1
  H  H225  1  0.94360000  0.83730000  0.60530000  1
  H  H226  1  0.80320000  0.41340000  0.34040000  1
  H  H227  1  0.92700000  0.03720000  0.84040000  1
  H  H228  1  0.54810000  0.57940000  0.76590000  1
  H  H229  1  0.18650000  0.71780000  0.26590000  1
  H  H230  1  0.38600000  0.14470000  0.49390000  1
  H  H231  1  0.34920000  0.60790000  0.99390000  1
  H  H232  1  0.74030000  0.87580000  0.98370000  1
  H  H233  1  0.10790000  0.74340000  0.48370000  1
  H  H234  1  0.80650000  0.79480000  0.83790000  1
  H  H235  1  0.04310000  0.53140000  0.33790000  1
  H  H236  1  0.54800000  0.64680000  0.98840000  1
  H  H237  1  0.34160000  0.94040000  0.48840000  1
  H  H238  1  0.65570000  0.37590000  0.61120000  1
  H  H239  1  0.23530000  0.45550000  0.11120000  1
  H  H240  1  0.59560000  0.52680000  0.84300000  1
  H  H241  1  0.31620000  0.74740000  0.34300000  1
  H  H242  1  0.62630000  0.17400000  0.46190000  1
  H  H243  1  0.28790000  0.33560000  0.96190000  1
  H  H244  1  0.85940000  0.37150000  0.46470000  1
  H  H245  1  0.09320000  0.10530000  0.96470000  1
  H  H246  1  0.93800000  0.59280000  0.61540000  1
  H  H247  1  0.02260000  0.17740000  0.11540000  1
  N  N248  1  0.44330000  0.41110000  0.08900000  1
  N  N249  1  0.67790000  0.14570000  0.58900000  1
  N  N250  1  0.24300000  0.16460000  0.09420000  1
  N  N251  1  0.92960000  0.35120000  0.59420000  1
  N  N252  1  0.15940000  0.47130000  0.55730000  1
  N  N253  1  0.08600000  0.89790000  0.05730000  1
  N  N254  1  0.13830000  0.85890000  0.97180000  1
  N  N255  1  0.11290000  0.33350000  0.47180000  1
  N  N256  1  0.35800000  0.53350000  0.47130000  1
  N  N257  1  0.93780000  0.61330000  0.97130000  1
  N  N258  1  0.41960000  0.67240000  0.55820000  1
  N  N259  1  0.88580000  0.63860000  0.05820000  1
  N  N260  1  0.44460000  0.27590000  0.23030000  1
  N  N261  1  0.95440000  0.28570000  0.73030000  1
  N  N262  1  0.67440000  0.84870000  0.58350000  1
  N  N263  1  0.73480000  0.40910000  0.08350000  1
  N  N264  1  0.26100000  0.90230000  0.06350000  1
  N  N265  1  0.16120000  0.30250000  0.56350000  1
  N  N266  1  0.53320000  0.17160000  0.07880000  1
  N  N267  1  0.90720000  0.04560000  0.57880000  1
  N  N268  1  0.69630000  0.47620000  0.22970000  1
  N  N269  1  0.75350000  0.03340000  0.72970000  1
  N  N270  1  0.41490000  0.50120000  0.56150000  1
  N  N271  1  0.06030000  0.64660000  0.06150000  1
  N  N272  1  0.58510000  0.49880000  0.43850000  1
  N  N273  1  0.93970000  0.35340000  0.93850000  1
  N  N274  1  0.30370000  0.52380000  0.77030000  1
  N  N275  1  0.24650000  0.96660000  0.27030000  1
  N  N276  1  0.46680000  0.82840000  0.92120000  1
  N  N277  1  0.09280000  0.95440000  0.42120000  1
  N  N278  1  0.73900000  0.09770000  0.93650000  1
  N  N279  1  0.83880000  0.69750000  0.43650000  1
  N  N280  1  0.32560000  0.15130000  0.41650000  1
  N  N281  1  0.26520000  0.59090000  0.91650000  1
  N  N282  1  0.55540000  0.72410000  0.76970000  1
  N  N283  1  0.04560000  0.71430000  0.26970000  1
  N  N284  1  0.58040000  0.32760000  0.44180000  1
  N  N285  1  0.11420000  0.36140000  0.94180000  1
  N  N286  1  0.64200000  0.46650000  0.52870000  1
  N  N287  1  0.06220000  0.38670000  0.02870000  1
  N  N288  1  0.86170000  0.14110000  0.02820000  1
  N  N289  1  0.88710000  0.66650000  0.52820000  1
  N  N290  1  0.84060000  0.52870000  0.44270000  1
  N  N291  1  0.91400000  0.10210000  0.94270000  1
  N  N292  1  0.75700000  0.83540000  0.90580000  1
  N  N293  1  0.07040000  0.64880000  0.40580000  1
  N  N294  1  0.55670000  0.58890000  0.91100000  1
  N  N295  1  0.32210000  0.85430000  0.41100000  1
