# generated using pymatgen
data_Zn5H20C32(NO)12
_symmetry_space_group_name_H-M   'P 1'
_cell_length_a   9.47700000
_cell_length_b   21.94512263
_cell_length_c   21.94512263
_cell_angle_alpha   69.47681242
_cell_angle_beta   77.53020095
_cell_angle_gamma   77.53020095
_symmetry_Int_Tables_number   1
_chemical_formula_structural   Zn5H20C32(NO)12
_chemical_formula_sum   'Zn10 H40 C64 N24 O24'
_cell_volume   4124.14399800
_cell_formula_units_Z   2
loop_
 _symmetry_equiv_pos_site_id
 _symmetry_equiv_pos_as_xyz
  1  'x, y, z'
loop_
 _atom_site_type_symbol
 _atom_site_label
 _atom_site_symmetry_multiplicity
 _atom_site_fract_x
 _atom_site_fract_y
 _atom_site_fract_z
 _atom_site_occupancy
  C  C0  1  0.01480000  0.16080000  0.80960000  1
  C  C1  1  0.01670000  0.25550000  0.71110000  1
  C  C2  1  0.02180000  0.69980000  0.25660000  1
  C  C3  1  0.02350000  0.79390000  0.15910000  1
  C  C4  1  0.03380000  0.09030000  0.84210000  1
  C  C5  1  0.03410000  0.18830000  0.74350000  1
  C  C6  1  0.03810000  0.62960000  0.29420000  1
  C  C7  1  0.04090000  0.72720000  0.19100000  1
  C  C8  1  0.16830000  0.39720000  0.26620000  1
  C  C9  1  0.21100000  0.36510000  0.21290000  1
  C  C10  1  0.22960000  0.39510000  0.14570000  1
  C  C11  1  0.23020000  0.29760000  0.24200000  1
  C  C12  1  0.26980000  0.25800000  0.20240000  1
  C  C13  1  0.27040000  0.35430000  0.10490000  1
  C  C14  1  0.28900000  0.28710000  0.13490000  1
  C  C15  1  0.33170000  0.23380000  0.10280000  1
  C  C16  1  0.45910000  0.30900000  0.77280000  1
  C  C17  1  0.46190000  0.20580000  0.87040000  1
  C  C18  1  0.46590000  0.75650000  0.31170000  1
  C  C19  1  0.46620000  0.65790000  0.40970000  1
  C  C20  1  0.47650000  0.34090000  0.70610000  1
  C  C21  1  0.47820000  0.24340000  0.80020000  1
  C  C22  1  0.48330000  0.78890000  0.24450000  1
  C  C23  1  0.48520000  0.69040000  0.33920000  1
  C  C24  1  0.51480000  0.30960000  0.66080000  1
  C  C25  1  0.51670000  0.21110000  0.75550000  1
  C  C26  1  0.52180000  0.75660000  0.19980000  1
  C  C27  1  0.52350000  0.65910000  0.29390000  1
  C  C28  1  0.53380000  0.34210000  0.59030000  1
  C  C29  1  0.53410000  0.24350000  0.68830000  1
  C  C30  1  0.53810000  0.79420000  0.12960000  1
  C  C31  1  0.54090000  0.69100000  0.22720000  1
  C  C32  1  0.66830000  0.76620000  0.89720000  1
  C  C33  1  0.71100000  0.71290000  0.86510000  1
  C  C34  1  0.72960000  0.64570000  0.89510000  1
  C  C35  1  0.73020000  0.74200000  0.79760000  1
  C  C36  1  0.76980000  0.70240000  0.75800000  1
  C  C37  1  0.77040000  0.60490000  0.85430000  1
  C  C38  1  0.78900000  0.63490000  0.78710000  1
  C  C39  1  0.83170000  0.60280000  0.73380000  1
  C  C40  1  0.95910000  0.27280000  0.80900000  1
  C  C41  1  0.96190000  0.37040000  0.70580000  1
  C  C42  1  0.96590000  0.81170000  0.25650000  1
  C  C43  1  0.96620000  0.90970000  0.15790000  1
  C  C44  1  0.97650000  0.20610000  0.84090000  1
  C  C45  1  0.97820000  0.30020000  0.74340000  1
  C  C46  1  0.98330000  0.74450000  0.28890000  1
  C  C47  1  0.98520000  0.83920000  0.19040000  1
  C  C48  1  0.85870000  0.41760000  0.39020000  1
  C  C49  1  0.16650000  0.10980000  0.08240000  1
  C  C50  1  0.35870000  0.89020000  0.91760000  1
  C  C51  1  0.66650000  0.58240000  0.60980000  1
  C  C52  1  0.80300000  0.50750000  0.40830000  1
  C  C53  1  0.21880000  0.09170000  0.99250000  1
  C  C54  1  0.30300000  0.90830000  0.00750000  1
  C  C55  1  0.71880000  0.49250000  0.59170000  1
  C  C56  1  0.78120000  0.90830000  0.00750000  1
  C  C57  1  0.19700000  0.49250000  0.59170000  1
  C  C58  1  0.28120000  0.50750000  0.40830000  1
  C  C59  1  0.69700000  0.09170000  0.99250000  1
  C  C60  1  0.83350000  0.89020000  0.91760000  1
  C  C61  1  0.14130000  0.58240000  0.60980000  1
  C  C62  1  0.33350000  0.41760000  0.39020000  1
  C  C63  1  0.64130000  0.10980000  0.08240000  1
  H  H64  1  0.03220000  0.27030000  0.66530000  1
  H  H65  1  0.03910000  0.80850000  0.11330000  1
  H  H66  1  0.06080000  0.16030000  0.71810000  1
  H  H67  1  0.06760000  0.69930000  0.16550000  1
  H  H68  1  0.21590000  0.44070000  0.12750000  1
  H  H69  1  0.21660000  0.27920000  0.28760000  1
  H  H70  1  0.28340000  0.21240000  0.22080000  1
  H  H71  1  0.28410000  0.37250000  0.05930000  1
  H  H72  1  0.43240000  0.33450000  0.80070000  1
  H  H73  1  0.43920000  0.78190000  0.33970000  1
  H  H74  1  0.46090000  0.38670000  0.69150000  1
  H  H75  1  0.46780000  0.83470000  0.22970000  1
  H  H76  1  0.53220000  0.16530000  0.77030000  1
  H  H77  1  0.53910000  0.61330000  0.30850000  1
  H  H78  1  0.56080000  0.21810000  0.66030000  1
  H  H79  1  0.56760000  0.66550000  0.19930000  1
  H  H80  1  0.71590000  0.62750000  0.94070000  1
  H  H81  1  0.71660000  0.78760000  0.77920000  1
  H  H82  1  0.78340000  0.72080000  0.71240000  1
  H  H83  1  0.78410000  0.55930000  0.87250000  1
  H  H84  1  0.93240000  0.30070000  0.83450000  1
  H  H85  1  0.93920000  0.83970000  0.28190000  1
  H  H86  1  0.96090000  0.19150000  0.88670000  1
  H  H87  1  0.96780000  0.72970000  0.33470000  1
  H  H88  1  0.90770000  0.38340000  0.37420000  1
  H  H89  1  0.16530000  0.12580000  0.11660000  1
  H  H90  1  0.40770000  0.87420000  0.88340000  1
  H  H91  1  0.66530000  0.61660000  0.62580000  1
  H  H92  1  0.80420000  0.55010000  0.40730000  1
  H  H93  1  0.26160000  0.09270000  0.94990000  1
  H  H94  1  0.30420000  0.90730000  0.05010000  1
  H  H95  1  0.76160000  0.44990000  0.59270000  1
  H  H96  1  0.73840000  0.90730000  0.05010000  1
  H  H97  1  0.19580000  0.44990000  0.59270000  1
  H  H98  1  0.23840000  0.55010000  0.40730000  1
  H  H99  1  0.69580000  0.09270000  0.94990000  1
  H  H100  1  0.83470000  0.87420000  0.88340000  1
  H  H101  1  0.09230000  0.61660000  0.62580000  1
  H  H102  1  0.33470000  0.38340000  0.37420000  1
  H  H103  1  0.59230000  0.12580000  0.11660000  1
  N  N104  1  0.92169000  0.93101000  0.91481000  1
  N  N105  1  0.26751000  0.58519000  0.56899000  1
  N  N106  1  0.42169000  0.41481000  0.43101000  1
  N  N107  1  0.76751000  0.06899000  0.08519000  1
  N  N108  1  0.88441000  0.94299000  0.97399000  1
  N  N109  1  0.30139000  0.52601000  0.55701000  1
  N  N110  1  0.38441000  0.47399000  0.44299000  1
  N  N111  1  0.80139000  0.05701000  0.02601000  1
  N  N112  1  0.90863000  0.47547000  0.37427000  1
  N  N113  1  0.25837000  0.12573000  0.02453000  1
  N  N114  1  0.40863000  0.87427000  0.97547000  1
  N  N115  1  0.75837000  0.52453000  0.62573000  1
  N  N116  1  0.74163000  0.87427000  0.97547000  1
  N  N117  1  0.09137000  0.52453000  0.62573000  1
  N  N118  1  0.24163000  0.47547000  0.37427000  1
  N  N119  1  0.59137000  0.12573000  0.02453000  1
  N  N120  1  0.69861000  0.47399000  0.44299000  1
  N  N121  1  0.11559000  0.05701000  0.02601000  1
  N  N122  1  0.19861000  0.94299000  0.97399000  1
  N  N123  1  0.61559000  0.52601000  0.55701000  1
  N  N124  1  0.73249000  0.41481000  0.43101000  1
  N  N125  1  0.07831000  0.06899000  0.08519000  1
  N  N126  1  0.23249000  0.93101000  0.91481000  1
  N  N127  1  0.57831000  0.58519000  0.56899000  1
  O  O128  1  0.01410000  0.07030000  0.90150000  1
  O  O129  1  0.01740000  0.61050000  0.35470000  1
  O  O130  1  0.06980000  0.05420000  0.80620000  1
  O  O131  1  0.07450000  0.59200000  0.25900000  1
  O  O132  1  0.14830000  0.45190000  0.25150000  1
  O  O133  1  0.15600000  0.36070000  0.32730000  1
  O  O134  1  0.34400000  0.17270000  0.13930000  1
  O  O135  1  0.35170000  0.24850000  0.04810000  1
  O  O136  1  0.42550000  0.24100000  0.90800000  1
  O  O137  1  0.43020000  0.69380000  0.44580000  1
  O  O138  1  0.48260000  0.14530000  0.88950000  1
  O  O139  1  0.48590000  0.59850000  0.42970000  1
  O  O140  1  0.51410000  0.40150000  0.57030000  1
  O  O141  1  0.51740000  0.85470000  0.11050000  1
  O  O142  1  0.56980000  0.30620000  0.55420000  1
  O  O143  1  0.57450000  0.75900000  0.09200000  1
  O  O144  1  0.64830000  0.75150000  0.95190000  1
  O  O145  1  0.65600000  0.82730000  0.86070000  1
  O  O146  1  0.84400000  0.63930000  0.67270000  1
  O  O147  1  0.85170000  0.54810000  0.74850000  1
  O  O148  1  0.92550000  0.40800000  0.74100000  1
  O  O149  1  0.93020000  0.94580000  0.19380000  1
  O  O150  1  0.98260000  0.38950000  0.64530000  1
  O  O151  1  0.98590000  0.92970000  0.09850000  1
  Zn  Zn152  1  0.00000000  0.00000000  0.00000000  1
  Zn  Zn153  1  0.09144000  0.50018000  0.31694000  1
  Zn  Zn154  1  0.09457000  0.96067000  0.85019000  1
  Zn  Zn155  1  0.40543000  0.64981000  0.53933000  1
  Zn  Zn156  1  0.40856000  0.18306000  0.99982000  1
  Zn  Zn157  1  0.50000000  0.50000000  0.50000000  1
  Zn  Zn158  1  0.59144000  0.81694000  0.00018000  1
  Zn  Zn159  1  0.59457000  0.35019000  0.46067000  1
  Zn  Zn160  1  0.90543000  0.03933000  0.14981000  1
  Zn  Zn161  1  0.90856000  0.49982000  0.68306000  1
