# generated using pymatgen
data_Co3H16C30(NO7)2
_symmetry_space_group_name_H-M   'P 1'
_cell_length_a   12.34350000
_cell_length_b   12.51750000
_cell_length_c   17.86000000
_cell_angle_alpha   90.00000000
_cell_angle_beta   90.00000000
_cell_angle_gamma   112.60100000
_symmetry_Int_Tables_number   1
_chemical_formula_structural   Co3H16C30(NO7)2
_chemical_formula_sum   'Co6 H32 C60 N4 O28'
_cell_volume   2547.62101625
_cell_formula_units_Z   2
loop_
 _symmetry_equiv_pos_site_id
 _symmetry_equiv_pos_as_xyz
  1  'x, y, z'
loop_
 _atom_site_type_symbol
 _atom_site_label
 _atom_site_symmetry_multiplicity
 _atom_site_fract_x
 _atom_site_fract_y
 _atom_site_fract_z
 _atom_site_occupancy
  Co  Co0  1  0.50000000  0.00000000  0.00000000  1
  Co  Co1  1  1.00000000  0.00000000  0.50000000  1
  Co  Co2  1  0.84260000  0.43751000  0.70447000  1
  Co  Co3  1  0.34260000  0.43751000  0.79553000  1
  Co  Co4  1  0.65740000  0.56249000  0.20447000  1
  Co  Co5  1  0.15740000  0.56249000  0.29553000  1
  H  H6  1  0.78750000  0.01570000  0.57350000  1
  H  H7  1  0.28750000  0.01570000  0.92650000  1
  H  H8  1  0.02810000  0.08780000  0.71550000  1
  H  H9  1  0.52810000  0.08780000  0.78450000  1
  H  H10  1  0.43580000  0.08880000  0.23250000  1
  H  H11  1  0.93580000  0.08880000  0.26750000  1
  H  H12  1  0.25130000  0.12120000  0.67870000  1
  H  H13  1  0.75130000  0.12120000  0.82130000  1
  H  H14  1  0.15120000  0.14360000  0.12520000  1
  H  H15  1  0.65120000  0.14360000  0.37480000  1
  H  H16  1  0.01140000  0.18460000  0.20770000  1
  H  H17  1  0.51140000  0.18460000  0.29230000  1
  H  H18  1  0.57130000  0.21410000  0.10660000  1
  H  H19  1  0.07130000  0.21410000  0.39340000  1
  H  H20  1  0.85270000  0.23090000  0.23120000  1
  H  H21  1  0.35270000  0.23090000  0.26880000  1
  H  H22  1  0.64730000  0.76910000  0.73120000  1
  H  H23  1  0.14730000  0.76910000  0.76880000  1
  H  H24  1  0.92870000  0.78590000  0.60660000  1
  H  H25  1  0.42870000  0.78590000  0.89340000  1
  H  H26  1  0.48860000  0.81540000  0.70770000  1
  H  H27  1  0.98860000  0.81540000  0.79230000  1
  H  H28  1  0.34880000  0.85640000  0.62520000  1
  H  H29  1  0.84880000  0.85640000  0.87480000  1
  H  H30  1  0.24870000  0.87880000  0.17870000  1
  H  H31  1  0.74870000  0.87880000  0.32130000  1
  H  H32  1  0.06420000  0.91120000  0.73250000  1
  H  H33  1  0.56420000  0.91120000  0.76750000  1
  H  H34  1  0.47190000  0.91220000  0.21550000  1
  H  H35  1  0.97190000  0.91220000  0.28450000  1
  H  H36  1  0.71250000  0.98430000  0.07350000  1
  H  H37  1  0.21250000  0.98430000  0.42650000  1
  C  C38  1  0.21280000  0.01610000  0.14214000  1
  C  C39  1  0.71280000  0.01610000  0.35786000  1
  C  C40  1  0.05020000  0.03770000  0.20640000  1
  C  C41  1  0.55020000  0.03770000  0.29360000  1
  C  C42  1  0.71210000  0.05060000  0.09924000  1
  C  C43  1  0.21210000  0.05060000  0.40076000  1
  C  C44  1  0.30790000  0.05550000  0.08329000  1
  C  C45  1  0.80790000  0.05550000  0.41671000  1
  C  C46  1  0.46680000  0.06140000  0.74859000  1
  C  C47  1  0.96680000  0.06140000  0.75141000  1
  C  C48  1  0.13970000  0.07600000  0.15366000  1
  C  C49  1  0.63970000  0.07600000  0.34634000  1
  C  C50  1  0.30270000  0.08160000  0.68521000  1
  C  C51  1  0.80270000  0.08160000  0.81479000  1
  C  C52  1  0.96920000  0.10060000  0.21637000  1
  C  C53  1  0.46920000  0.10060000  0.28363000  1
  C  C54  1  0.79820000  0.10180000  0.15274000  1
  C  C55  1  0.29820000  0.10180000  0.34726000  1
  C  C56  1  0.39320000  0.12180000  0.73790000  1
  C  C57  1  0.89320000  0.12180000  0.76210000  1
  C  C58  1  0.62930000  0.18440000  0.11884000  1
  C  C59  1  0.12930000  0.18440000  0.38116000  1
  C  C60  1  0.79730000  0.19660000  0.19260000  1
  C  C61  1  0.29730000  0.19660000  0.30740000  1
  C  C62  1  0.90930000  0.22840000  0.71735000  1
  C  C63  1  0.40930000  0.22840000  0.78265000  1
  C  C64  1  0.71150000  0.23970000  0.17380000  1
  C  C65  1  0.21150000  0.23970000  0.32620000  1
  C  C66  1  0.71080000  0.34670000  0.21287000  1
  C  C67  1  0.21080000  0.34670000  0.28713000  1
  C  C68  1  0.78920000  0.65330000  0.71287000  1
  C  C69  1  0.28920000  0.65330000  0.78713000  1
  C  C70  1  0.78850000  0.76030000  0.67380000  1
  C  C71  1  0.28850000  0.76030000  0.82620000  1
  C  C72  1  0.59070000  0.77160000  0.21735000  1
  C  C73  1  0.09070000  0.77160000  0.28265000  1
  C  C74  1  0.70270000  0.80340000  0.69260000  1
  C  C75  1  0.20270000  0.80340000  0.80740000  1
  C  C76  1  0.87070000  0.81560000  0.61884000  1
  C  C77  1  0.37070000  0.81560000  0.88116000  1
  C  C78  1  0.10680000  0.87820000  0.23790000  1
  C  C79  1  0.60680000  0.87820000  0.26210000  1
  C  C80  1  0.70180000  0.89820000  0.65274000  1
  C  C81  1  0.20180000  0.89820000  0.84726000  1
  C  C82  1  0.53080000  0.89940000  0.71637000  1
  C  C83  1  0.03080000  0.89940000  0.78363000  1
  C  C84  1  0.19730000  0.91840000  0.18521000  1
  C  C85  1  0.69730000  0.91840000  0.31479000  1
  C  C86  1  0.36030000  0.92400000  0.65366000  1
  C  C87  1  0.86030000  0.92400000  0.84634000  1
  C  C88  1  0.03320000  0.93860000  0.24859000  1
  C  C89  1  0.53320000  0.93860000  0.25141000  1
  C  C90  1  0.19210000  0.94450000  0.58329000  1
  C  C91  1  0.69210000  0.94450000  0.91671000  1
  C  C92  1  0.78790000  0.94940000  0.59924000  1
  C  C93  1  0.28790000  0.94940000  0.90076000  1
  C  C94  1  0.44980000  0.96230000  0.70640000  1
  C  C95  1  0.94980000  0.96230000  0.79360000  1
  C  C96  1  0.28720000  0.98390000  0.64214000  1
  C  C97  1  0.78720000  0.98390000  0.85786000  1
  N  N98  1  0.62886000  0.09035000  0.08235000  1
  N  N99  1  0.12886000  0.09035000  0.41765000  1
  N  N100  1  0.87114000  0.90965000  0.58235000  1
  N  N101  1  0.37114000  0.90965000  0.91765000  1
  O  O102  1  0.12805000  0.00178000  0.57750000  1
  O  O103  1  0.62805000  0.00178000  0.92250000  1
  O  O104  1  0.87773000  0.05110000  0.16110000  1
  O  O105  1  0.37773000  0.05110000  0.33890000  1
  O  O106  1  0.31590000  0.14158000  0.04259000  1
  O  O107  1  0.81590000  0.14158000  0.45741000  1
  O  O108  1  0.99561000  0.26617000  0.67177000  1
  O  O109  1  0.49561000  0.26617000  0.82823000  1
  O  O110  1  0.83616000  0.27418000  0.72828000  1
  O  O111  1  0.33616000  0.27418000  0.77172000  1
  O  O112  1  0.26881000  0.37613000  0.22750000  1
  O  O113  1  0.76881000  0.37613000  0.27250000  1
  O  O114  1  0.65209000  0.39737000  0.18194000  1
  O  O115  1  0.15209000  0.39737000  0.31806000  1
  O  O116  1  0.84791000  0.60263000  0.68194000  1
  O  O117  1  0.34791000  0.60263000  0.81806000  1
  O  O118  1  0.23119000  0.62387000  0.72750000  1
  O  O119  1  0.73119000  0.62387000  0.77250000  1
  O  O120  1  0.66384000  0.72582000  0.22828000  1
  O  O121  1  0.16384000  0.72582000  0.27172000  1
  O  O122  1  0.50439000  0.73383000  0.17177000  1
  O  O123  1  0.00439000  0.73383000  0.32823000  1
  O  O124  1  0.18410000  0.85842000  0.54259000  1
  O  O125  1  0.68410000  0.85842000  0.95741000  1
  O  O126  1  0.62227000  0.94890000  0.66110000  1
  O  O127  1  0.12227000  0.94890000  0.83890000  1
  O  O128  1  0.37195000  0.99822000  0.07750000  1
  O  O129  1  0.87195000  0.99822000  0.42250000  1
