# generated using pymatgen
data_CuH3C10(SO2)2
_symmetry_space_group_name_H-M   'P 1'
_cell_length_a   10.98000000
_cell_length_b   18.55900000
_cell_length_c   18.55900000
_cell_angle_alpha   120.00000000
_cell_angle_beta   90.00000000
_cell_angle_gamma   90.00000000
_symmetry_Int_Tables_number   1
_chemical_formula_structural   CuH3C10(SO2)2
_chemical_formula_sum   'Cu6 H18 C60 S12 O24'
_cell_volume   3275.23235305
_cell_formula_units_Z   6
loop_
 _symmetry_equiv_pos_site_id
 _symmetry_equiv_pos_as_xyz
  1  'x, y, z'
loop_
 _atom_site_type_symbol
 _atom_site_label
 _atom_site_symmetry_multiplicity
 _atom_site_fract_x
 _atom_site_fract_y
 _atom_site_fract_z
 _atom_site_occupancy
  Cu  Cu0  1  0.40190000  0.95234000  0.47617000  1
  Cu  Cu1  1  0.40190000  0.52383000  0.04766000  1
  Cu  Cu2  1  0.40190000  0.52383000  0.47617000  1
  Cu  Cu3  1  0.59810000  0.47617000  0.52383000  1
  Cu  Cu4  1  0.59810000  0.47617000  0.95234000  1
  Cu  Cu5  1  0.59810000  0.04766000  0.52383000  1
  H  H6  1  0.80070000  0.92490000  0.29170000  1
  H  H7  1  0.80070000  0.92490000  0.63320000  1
  H  H8  1  0.52000000  0.76450000  0.23550000  1
  H  H9  1  0.52000000  0.76450000  0.52900000  1
  H  H10  1  0.80070000  0.70830000  0.07510000  1
  H  H11  1  0.80070000  0.70830000  0.63320000  1
  H  H12  1  0.19930000  0.63320000  0.70830000  1
  H  H13  1  0.19930000  0.63320000  0.92490000  1
  H  H14  1  0.48000000  0.52900000  0.76450000  1
  H  H15  1  0.52000000  0.47100000  0.23550000  1
  H  H16  1  0.80070000  0.36680000  0.07510000  1
  H  H17  1  0.80070000  0.36680000  0.29170000  1
  H  H18  1  0.19930000  0.29170000  0.36680000  1
  H  H19  1  0.19930000  0.29170000  0.92490000  1
  H  H20  1  0.48000000  0.23550000  0.47100000  1
  H  H21  1  0.48000000  0.23550000  0.76450000  1
  H  H22  1  0.19930000  0.07510000  0.36680000  1
  H  H23  1  0.19930000  0.07510000  0.70830000  1
  C  C24  1  0.83290000  0.91785000  0.08215000  1
  C  C25  1  0.83290000  0.91785000  0.83570000  1
  C  C26  1  0.59410000  0.90880000  0.35920000  1
  C  C27  1  0.59410000  0.90880000  0.54960000  1
  C  C28  1  0.76300000  0.87330000  0.25470000  1
  C  C29  1  0.76300000  0.87330000  0.61860000  1
  C  C30  1  0.65240000  0.85320000  0.27640000  1
  C  C31  1  0.65240000  0.85320000  0.57680000  1
  C  C32  1  0.94510000  0.84120000  0.15880000  1
  C  C33  1  0.94510000  0.84120000  0.68240000  1
  C  C34  1  0.16710000  0.83570000  0.91785000  1
  C  C35  1  0.81920000  0.81955000  0.18045000  1
  C  C36  1  0.81920000  0.81955000  0.63910000  1
  C  C37  1  0.59650000  0.77830000  0.22170000  1
  C  C38  1  0.59650000  0.77830000  0.55660000  1
  C  C39  1  0.76300000  0.74530000  0.12670000  1
  C  C40  1  0.76300000  0.74530000  0.61860000  1
  C  C41  1  0.65240000  0.72360000  0.14680000  1
  C  C42  1  0.65240000  0.72360000  0.57680000  1
  C  C43  1  0.05490000  0.68240000  0.84120000  1
  C  C44  1  0.59410000  0.64080000  0.09120000  1
  C  C45  1  0.59410000  0.64080000  0.54960000  1
  C  C46  1  0.18080000  0.63910000  0.81955000  1
  C  C47  1  0.23700000  0.61860000  0.74530000  1
  C  C48  1  0.23700000  0.61860000  0.87330000  1
  C  C49  1  0.34760000  0.57680000  0.72360000  1
  C  C50  1  0.34760000  0.57680000  0.85320000  1
  C  C51  1  0.40350000  0.55660000  0.77830000  1
  C  C52  1  0.40590000  0.54960000  0.64080000  1
  C  C53  1  0.40590000  0.54960000  0.90880000  1
  C  C54  1  0.59410000  0.45040000  0.09120000  1
  C  C55  1  0.59410000  0.45040000  0.35920000  1
  C  C56  1  0.59650000  0.44340000  0.22170000  1
  C  C57  1  0.65240000  0.42320000  0.14680000  1
  C  C58  1  0.65240000  0.42320000  0.27640000  1
  C  C59  1  0.76300000  0.38140000  0.12670000  1
  C  C60  1  0.76300000  0.38140000  0.25470000  1
  C  C61  1  0.81920000  0.36090000  0.18045000  1
  C  C62  1  0.40590000  0.35920000  0.45040000  1
  C  C63  1  0.40590000  0.35920000  0.90880000  1
  C  C64  1  0.94510000  0.31760000  0.15880000  1
  C  C65  1  0.34760000  0.27640000  0.42320000  1
  C  C66  1  0.34760000  0.27640000  0.85320000  1
  C  C67  1  0.23700000  0.25470000  0.38140000  1
  C  C68  1  0.23700000  0.25470000  0.87330000  1
  C  C69  1  0.40350000  0.22170000  0.44340000  1
  C  C70  1  0.40350000  0.22170000  0.77830000  1
  C  C71  1  0.18080000  0.18045000  0.36090000  1
  C  C72  1  0.18080000  0.18045000  0.81955000  1
  C  C73  1  0.83290000  0.16430000  0.08215000  1
  C  C74  1  0.05490000  0.15880000  0.31760000  1
  C  C75  1  0.05490000  0.15880000  0.84120000  1
  C  C76  1  0.34760000  0.14680000  0.42320000  1
  C  C77  1  0.34760000  0.14680000  0.72360000  1
  C  C78  1  0.23700000  0.12670000  0.38140000  1
  C  C79  1  0.23700000  0.12670000  0.74530000  1
  C  C80  1  0.40590000  0.09120000  0.45040000  1
  C  C81  1  0.40590000  0.09120000  0.64080000  1
  C  C82  1  0.16710000  0.08215000  0.16430000  1
  C  C83  1  0.16710000  0.08215000  0.91785000  1
  S  S84  1  0.95110000  0.94140000  0.16910000  1
  S  S85  1  0.95110000  0.94140000  0.77230000  1
  S  S86  1  0.95110000  0.83090000  0.05860000  1
  S  S87  1  0.95110000  0.83090000  0.77230000  1
  S  S88  1  0.04890000  0.77230000  0.83090000  1
  S  S89  1  0.04890000  0.77230000  0.94140000  1
  S  S90  1  0.95110000  0.22770000  0.05860000  1
  S  S91  1  0.95110000  0.22770000  0.16910000  1
  S  S92  1  0.04890000  0.16910000  0.22770000  1
  S  S93  1  0.04890000  0.16910000  0.94140000  1
  S  S94  1  0.04890000  0.05860000  0.22770000  1
  S  S95  1  0.04890000  0.05860000  0.83090000  1
  O  O96  1  0.65620000  0.97081000  0.41101000  1
  O  O97  1  0.65620000  0.97081000  0.55980000  1
  O  O98  1  0.49020000  0.89017000  0.37154000  1
  O  O99  1  0.49020000  0.89017000  0.51863000  1
  O  O100  1  0.49020000  0.62846000  0.10983000  1
  O  O101  1  0.49020000  0.62846000  0.51863000  1
  O  O102  1  0.65620000  0.58899000  0.02919000  1
  O  O103  1  0.65620000  0.58899000  0.55980000  1
  O  O104  1  0.34380000  0.55980000  0.58899000  1
  O  O105  1  0.34380000  0.55980000  0.97081000  1
  O  O106  1  0.50980000  0.51863000  0.62846000  1
  O  O107  1  0.50980000  0.51863000  0.89017000  1
  O  O108  1  0.49020000  0.48137000  0.10983000  1
  O  O109  1  0.49020000  0.48137000  0.37154000  1
  O  O110  1  0.65620000  0.44020000  0.02919000  1
  O  O111  1  0.65620000  0.44020000  0.41101000  1
  O  O112  1  0.34380000  0.41101000  0.44020000  1
  O  O113  1  0.34380000  0.41101000  0.97081000  1
  O  O114  1  0.50980000  0.37154000  0.48137000  1
  O  O115  1  0.50980000  0.37154000  0.89017000  1
  O  O116  1  0.50980000  0.10983000  0.48137000  1
  O  O117  1  0.50980000  0.10983000  0.62846000  1
  O  O118  1  0.34380000  0.02919000  0.44020000  1
  O  O119  1  0.34380000  0.02919000  0.58899000  1
