# generated using pymatgen
data_Ag3H6C4(SN4)2
_symmetry_space_group_name_H-M   'P 1'
_cell_length_a   9.93900000
_cell_length_b   14.02100000
_cell_length_c   19.80231019
_cell_angle_alpha   90.00000000
_cell_angle_beta   101.30424302
_cell_angle_gamma   90.00000000
_symmetry_Int_Tables_number   1
_chemical_formula_structural   Ag3H6C4(SN4)2
_chemical_formula_sum   'Ag12 H24 C16 S8 N32'
_cell_volume   2706.01059184
_cell_formula_units_Z   4
loop_
 _symmetry_equiv_pos_site_id
 _symmetry_equiv_pos_as_xyz
  1  'x, y, z'
loop_
 _atom_site_type_symbol
 _atom_site_label
 _atom_site_symmetry_multiplicity
 _atom_site_fract_x
 _atom_site_fract_y
 _atom_site_fract_z
 _atom_site_occupancy
  Ag  Ag0  1  0.39053000  0.97224000  0.54759000  1
  Ag  Ag1  1  0.89053000  0.52776000  0.04759000  1
  Ag  Ag2  1  0.06545000  0.87044000  0.36485000  1
  Ag  Ag3  1  0.56545000  0.62956000  0.86485000  1
  Ag  Ag4  1  0.38994000  0.84581000  0.71823000  1
  Ag  Ag5  1  0.88994000  0.65419000  0.21823000  1
  Ag  Ag6  1  0.11006000  0.34581000  0.78177000  1
  Ag  Ag7  1  0.61006000  0.15419000  0.28177000  1
  Ag  Ag8  1  0.43455000  0.37044000  0.13515000  1
  Ag  Ag9  1  0.93455000  0.12956000  0.63515000  1
  Ag  Ag10  1  0.10947000  0.47224000  0.95241000  1
  Ag  Ag11  1  0.60947000  0.02776000  0.45241000  1
  H  H12  1  0.06240000  0.36200000  0.22140000  1
  H  H13  1  0.56240000  0.13800000  0.72140000  1
  H  H14  1  0.01070000  0.46780000  0.21540000  1
  H  H15  1  0.51070000  0.03220000  0.71540000  1
  H  H16  1  0.54680000  0.32180000  0.78060000  1
  H  H17  1  0.04680000  0.17820000  0.28060000  1
  H  H18  1  0.03960000  0.41680000  0.28720000  1
  H  H19  1  0.53960000  0.08320000  0.78720000  1
  H  H20  1  0.51770000  0.42520000  0.80410000  1
  H  H21  1  0.01770000  0.07480000  0.30410000  1
  H  H22  1  0.53100000  0.34050000  0.85670000  1
  H  H23  1  0.03100000  0.15950000  0.35670000  1
  H  H24  1  0.96900000  0.84050000  0.64330000  1
  H  H25  1  0.46900000  0.65950000  0.14330000  1
  H  H26  1  0.98230000  0.92520000  0.69590000  1
  H  H27  1  0.48230000  0.57480000  0.19590000  1
  H  H28  1  0.46040000  0.91680000  0.21280000  1
  H  H29  1  0.96040000  0.58320000  0.71280000  1
  H  H30  1  0.95320000  0.82180000  0.71940000  1
  H  H31  1  0.45320000  0.67820000  0.21940000  1
  H  H32  1  0.48930000  0.96780000  0.28460000  1
  H  H33  1  0.98930000  0.53220000  0.78460000  1
  H  H34  1  0.43760000  0.86200000  0.27860000  1
  H  H35  1  0.93760000  0.63800000  0.77860000  1
  C  C36  1  0.78390000  0.44120000  0.88660000  1
  C  C37  1  0.28390000  0.05880000  0.38660000  1
  C  C38  1  0.00650000  0.40820000  0.23870000  1
  C  C39  1  0.50650000  0.09180000  0.73870000  1
  C  C40  1  0.56410000  0.36630000  0.81810000  1
  C  C41  1  0.06410000  0.13370000  0.31810000  1
  C  C42  1  0.75090000  0.41290000  0.18880000  1
  C  C43  1  0.25090000  0.08710000  0.68880000  1
  C  C44  1  0.74910000  0.91290000  0.31120000  1
  C  C45  1  0.24910000  0.58710000  0.81120000  1
  C  C46  1  0.93590000  0.86630000  0.68190000  1
  C  C47  1  0.43590000  0.63370000  0.18190000  1
  C  C48  1  0.49350000  0.90820000  0.26130000  1
  C  C49  1  0.99350000  0.59180000  0.76130000  1
  C  C50  1  0.71610000  0.94120000  0.61340000  1
  C  C51  1  0.21610000  0.55880000  0.11340000  1
  S  S52  1  0.21763000  0.98247000  0.44083000  1
  S  S53  1  0.71763000  0.51753000  0.94083000  1
  S  S54  1  0.23680000  0.97911000  0.64610000  1
  S  S55  1  0.73680000  0.52089000  0.14610000  1
  S  S56  1  0.26320000  0.47911000  0.85390000  1
  S  S57  1  0.76320000  0.02089000  0.35390000  1
  S  S58  1  0.28237000  0.48247000  0.05917000  1
  S  S59  1  0.78237000  0.01753000  0.55917000  1
  N  N60  1  0.79720000  0.33900000  0.80450000  1
  N  N61  1  0.29720000  0.16100000  0.30450000  1
  N  N62  1  0.58570000  0.92960000  0.61590000  1
  N  N63  1  0.08570000  0.57040000  0.11590000  1
  N  N64  1  0.58160000  0.86710000  0.66830000  1
  N  N65  1  0.08160000  0.63290000  0.16830000  1
  N  N66  1  0.71040000  0.38360000  0.83760000  1
  N  N67  1  0.21040000  0.11640000  0.33760000  1
  N  N68  1  0.86480000  0.37480000  0.22680000  1
  N  N69  1  0.36480000  0.12520000  0.72680000  1
  N  N70  1  0.83330000  0.29170000  0.25480000  1
  N  N71  1  0.33330000  0.20830000  0.75480000  1
  N  N72  1  0.85250000  0.85440000  0.30710000  1
  N  N73  1  0.35250000  0.64560000  0.80710000  1
  N  N74  1  0.79610000  0.78060000  0.26510000  1
  N  N75  1  0.29610000  0.71940000  0.76510000  1
  N  N76  1  0.70390000  0.28060000  0.23490000  1
  N  N77  1  0.20390000  0.21940000  0.73490000  1
  N  N78  1  0.64750000  0.35440000  0.19290000  1
  N  N79  1  0.14750000  0.14560000  0.69290000  1
  N  N80  1  0.66670000  0.79170000  0.24520000  1
  N  N81  1  0.16670000  0.70830000  0.74520000  1
  N  N82  1  0.63520000  0.87480000  0.27320000  1
  N  N83  1  0.13520000  0.62520000  0.77320000  1
  N  N84  1  0.78960000  0.88360000  0.66240000  1
  N  N85  1  0.28960000  0.61640000  0.16240000  1
  N  N86  1  0.91840000  0.36710000  0.83170000  1
  N  N87  1  0.41840000  0.13290000  0.33170000  1
  N  N88  1  0.91430000  0.42960000  0.88410000  1
  N  N89  1  0.41430000  0.07040000  0.38410000  1
  N  N90  1  0.70280000  0.83900000  0.69550000  1
  N  N91  1  0.20280000  0.66100000  0.19550000  1
