# generated using pymatgen
data_Cd2H45C45N18ClO6
_symmetry_space_group_name_H-M   'P 1'
_cell_length_a   9.63980000
_cell_length_b   13.06500000
_cell_length_c   21.05400000
_cell_angle_alpha   102.46000000
_cell_angle_beta   102.39000000
_cell_angle_gamma   99.52000000
_symmetry_Int_Tables_number   1
_chemical_formula_structural   Cd2H45C45N18ClO6
_chemical_formula_sum   'Cd4 H90 C90 N36 Cl2 O12'
_cell_volume   2465.78659124
_cell_formula_units_Z   2
loop_
 _symmetry_equiv_pos_site_id
 _symmetry_equiv_pos_as_xyz
  1  'x, y, z'
loop_
 _atom_site_type_symbol
 _atom_site_label
 _atom_site_symmetry_multiplicity
 _atom_site_fract_x
 _atom_site_fract_y
 _atom_site_fract_z
 _atom_site_occupancy
  Cd  Cd0  1  0.08026000  0.83052000  0.10420000  1
  Cd  Cd1  1  0.16713000  0.89255000  0.45564000  1
  Cd  Cd2  1  0.83287000  0.10745000  0.54436000  1
  Cd  Cd3  1  0.91974000  0.16948000  0.89580000  1
  H  H4  1  0.00170000  0.43770000  0.68980000  1
  H  H5  1  0.01970000  0.08100000  0.37950000  1
  H  H6  1  0.02650000  0.07760000  0.75440000  1
  H  H7  1  0.02780000  0.47630000  0.62690000  1
  H  H8  1  0.04960000  0.23030000  0.31150000  1
  H  H9  1  0.05570000  0.31910000  0.51270000  1
  H  H10  1  0.05910000  0.40250000  0.17860000  1
  H  H11  1  0.07100000  0.79480000  0.88500000  1
  H  H12  1  0.07600000  0.14860000  0.22280000  1
  H  H13  1  0.08590000  0.41780000  0.01470000  1
  H  H14  1  0.09230000  0.48450000  0.24910000  1
  H  H15  1  0.10990000  0.68970000  0.90090000  1
  H  H16  1  0.11730000  0.31830000  0.37980000  1
  H  H17  1  0.14660000  0.43040000  0.66840000  1
  H  H18  1  0.15500000  0.14130000  0.03290000  1
  H  H19  1  0.15550000  0.76420000  0.30110000  1
  H  H20  1  0.16120000  0.61980000  0.17200000  1
  H  H21  1  0.16620000  0.14270000  0.16890000  1
  H  H22  1  0.19390000  0.02850000  0.92610000  1
  H  H23  1  0.22310000  0.11060000  0.23570000  1
  H  H24  1  0.23190000  0.79480000  0.91970000  1
  H  H25  1  0.23370000  0.35310000  0.89280000  1
  H  H26  1  0.23540000  0.50610000  0.41790000  1
  H  H27  1  0.24630000  0.27410000  0.75590000  1
  H  H28  1  0.26740000  0.53760000  0.61950000  1
  H  H29  1  0.31990000  0.42430000  0.44410000  1
  H  H30  1  0.34980000  0.19960000  0.14550000  1
  H  H31  1  0.35790000  0.90370000  0.89010000  1
  H  H32  1  0.36110000  0.88500000  0.69910000  1
  H  H33  1  0.36270000  0.75120000  0.55280000  1
  H  H34  1  0.38750000  0.49400000  0.76400000  1
  H  H35  1  0.39360000  0.64060000  0.64040000  1
  H  H36  1  0.40610000  0.53480000  0.44050000  1
  H  H37  1  0.41790000  0.93660000  0.83210000  1
  H  H38  1  0.42990000  0.38220000  0.67370000  1
  H  H39  1  0.43050000  0.08830000  0.44140000  1
  H  H40  1  0.44530000  0.40140000  0.60420000  1
  H  H41  1  0.44690000  0.79540000  0.68140000  1
  H  H42  1  0.45220000  0.30560000  0.14470000  1
  H  H43  1  0.45740000  0.26520000  0.82880000  1
  H  H44  1  0.46670000  0.95200000  0.31800000  1
  H  H45  1  0.47670000  0.77150000  0.44820000  1
  H  H46  1  0.48880000  0.56770000  0.21900000  1
  H  H47  1  0.48930000  0.46030000  0.16860000  1
  H  H48  1  0.49250000  0.87390000  0.75380000  1
  H  H49  1  0.50750000  0.12610000  0.24620000  1
  H  H50  1  0.51070000  0.53970000  0.83140000  1
  H  H51  1  0.51120000  0.43230000  0.78100000  1
  H  H52  1  0.52330000  0.22850000  0.55180000  1
  H  H53  1  0.53330000  0.04800000  0.68200000  1
  H  H54  1  0.54260000  0.73480000  0.17120000  1
  H  H55  1  0.54780000  0.69440000  0.85530000  1
  H  H56  1  0.55310000  0.20460000  0.31860000  1
  H  H57  1  0.55470000  0.59860000  0.39580000  1
  H  H58  1  0.56950000  0.91170000  0.55860000  1
  H  H59  1  0.57010000  0.61780000  0.32630000  1
  H  H60  1  0.58210000  0.06340000  0.16790000  1
  H  H61  1  0.59390000  0.46520000  0.55950000  1
  H  H62  1  0.60640000  0.35940000  0.35960000  1
  H  H63  1  0.61250000  0.50600000  0.23600000  1
  H  H64  1  0.63730000  0.24880000  0.44720000  1
  H  H65  1  0.63890000  0.11500000  0.30090000  1
  H  H66  1  0.64210000  0.09630000  0.10990000  1
  H  H67  1  0.65020000  0.80040000  0.85450000  1
  H  H68  1  0.68010000  0.57570000  0.55590000  1
  H  H69  1  0.73260000  0.46240000  0.38050000  1
  H  H70  1  0.75370000  0.72590000  0.24410000  1
  H  H71  1  0.76460000  0.49390000  0.58210000  1
  H  H72  1  0.76630000  0.64690000  0.10720000  1
  H  H73  1  0.76810000  0.20520000  0.08030000  1
  H  H74  1  0.77690000  0.88940000  0.76430000  1
  H  H75  1  0.80610000  0.97150000  0.07390000  1
  H  H76  1  0.83380000  0.85730000  0.83110000  1
  H  H77  1  0.83880000  0.38020000  0.82800000  1
  H  H78  1  0.84450000  0.23580000  0.69890000  1
  H  H79  1  0.84500000  0.85870000  0.96710000  1
  H  H80  1  0.85340000  0.56960000  0.33160000  1
  H  H81  1  0.88270000  0.68170000  0.62020000  1
  H  H82  1  0.89010000  0.31030000  0.09910000  1
  H  H83  1  0.90770000  0.51550000  0.75090000  1
  H  H84  1  0.91410000  0.58220000  0.98530000  1
  H  H85  1  0.92400000  0.85140000  0.77720000  1
  H  H86  1  0.92900000  0.20520000  0.11500000  1
  H  H87  1  0.94090000  0.59750000  0.82140000  1
  H  H88  1  0.94430000  0.68090000  0.48730000  1
  H  H89  1  0.95040000  0.76970000  0.68850000  1
  H  H90  1  0.97220000  0.52370000  0.37310000  1
  H  H91  1  0.97350000  0.92240000  0.24560000  1
  H  H92  1  0.98030000  0.91900000  0.62050000  1
  H  H93  1  0.99830000  0.56230000  0.31020000  1
  C  C94  1  0.01710000  0.44910000  0.20780000  1
  C  C95  1  0.03800000  0.68250000  0.51130000  1
  C  C96  1  0.06030000  0.60930000  0.16210000  1
  C  C97  1  0.07360000  0.47180000  0.67120000  1
  C  C98  1  0.08100000  0.05200000  0.78710000  1
  C  C99  1  0.10560000  0.61930000  0.77560000  1
  C  C100  1  0.12070000  0.10060000  0.38940000  1
  C  C101  1  0.12300000  0.36530000  0.03200000  1
  C  C102  1  0.13230000  0.18040000  0.62660000  1
  C  C103  1  0.13970000  0.26560000  0.34560000  1
  C  C104  1  0.14370000  0.58350000  0.71580000  1
  C  C105  1  0.14390000  0.75290000  0.88740000  1
  C  C106  1  0.15410000  0.37750000  0.87300000  1
  C  C107  1  0.15840000  0.21460000  0.04060000  1
  C  C108  1  0.17040000  0.02680000  0.88070000  1
  C  C109  1  0.17240000  0.15830000  0.21620000  1
  C  C110  1  0.17350000  0.72040000  0.81910000  1
  C  C111  1  0.23670000  0.74790000  0.32620000  1
  C  C112  1  0.24420000  0.32330000  0.31370000  1
  C  C113  1  0.24730000  0.65320000  0.69760000  1
  C  C114  1  0.25430000  0.27360000  0.24990000  1
  C  C115  1  0.26260000  0.16640000  0.67464000  1
  C  C116  1  0.26430000  0.72200000  0.54610000  1
  C  C117  1  0.27190000  0.79120000  0.79940000  1
  C  C118  1  0.28950000  0.61550000  0.63290000  1
  C  C119  1  0.29220000  0.01800000  0.58385000  1
  C  C120  1  0.30410000  0.22880000  0.74090000  1
  C  C121  1  0.30870000  0.75820000  0.73860000  1
  C  C122  1  0.32140000  0.47770000  0.41910000  1
  C  C123  1  0.32580000  0.42720000  0.34770000  1
  C  C124  1  0.33090000  0.90510000  0.84320000  1
  C  C125  1  0.33850000  0.84040000  0.19170000  1
  C  C126  1  0.34400000  0.32940000  0.21814000  1
  C  C127  1  0.34440000  0.10650000  0.42290000  1
  C  C128  1  0.34560000  0.09420000  0.65286000  1
  C  C129  1  0.35700000  0.27580000  0.14940000  1
  C  C130  1  0.40910000  0.75320000  0.40650000  1
  C  C131  1  0.41180000  0.83520000  0.71620000  1
  C  C132  1  0.41310000  0.48330000  0.31540000  1
  C  C133  1  0.42100000  0.43550000  0.25000000  1
  C  C134  1  0.43080000  0.22380000  0.78440000  1
  C  C135  1  0.47480000  0.09290000  0.69675000  1
  C  C136  1  0.48160000  0.84240000  0.23760000  1
  C  C137  1  0.48900000  0.50200000  0.78480000  1
  C  C138  1  0.49940000  0.40310000  0.64910000  1
  C  C139  1  0.50060000  0.59690000  0.35090000  1
  C  C140  1  0.51100000  0.49800000  0.21520000  1
  C  C141  1  0.51840000  0.15760000  0.76240000  1
  C  C142  1  0.52520000  0.90710000  0.30325000  1
  C  C143  1  0.56920000  0.77620000  0.21560000  1
  C  C144  1  0.57900000  0.56450000  0.75000000  1
  C  C145  1  0.58690000  0.51670000  0.68460000  1
  C  C146  1  0.58820000  0.16480000  0.28380000  1
  C  C147  1  0.59090000  0.24680000  0.59350000  1
  C  C148  1  0.64300000  0.72420000  0.85060000  1
  C  C149  1  0.65440000  0.90580000  0.34714000  1
  C  C150  1  0.65560000  0.89350000  0.57710000  1
  C  C151  1  0.65600000  0.67060000  0.78186000  1
  C  C152  1  0.66150000  0.15960000  0.80830000  1
  C  C153  1  0.66910000  0.09490000  0.15680000  1
  C  C154  1  0.67420000  0.57280000  0.65230000  1
  C  C155  1  0.67860000  0.52230000  0.58090000  1
  C  C156  1  0.69130000  0.24180000  0.26140000  1
  C  C157  1  0.69590000  0.77120000  0.25910000  1
  C  C158  1  0.70780000  0.98200000  0.41615000  1
  C  C159  1  0.71050000  0.38450000  0.36710000  1
  C  C160  1  0.72810000  0.20880000  0.20060000  1
  C  C161  1  0.73570000  0.27800000  0.45390000  1
  C  C162  1  0.73740000  0.83360000  0.32536000  1
  C  C163  1  0.74570000  0.72640000  0.75010000  1
  C  C164  1  0.75270000  0.34680000  0.30240000  1
  C  C165  1  0.75580000  0.67670000  0.68630000  1
  C  C166  1  0.76330000  0.25210000  0.67380000  1
  C  C167  1  0.82650000  0.27960000  0.18090000  1
  C  C168  1  0.82760000  0.84170000  0.78380000  1
  C  C169  1  0.82960000  0.97320000  0.11930000  1
  C  C170  1  0.84160000  0.78540000  0.95940000  1
  C  C171  1  0.84590000  0.62250000  0.12700000  1
  C  C172  1  0.85610000  0.24710000  0.11260000  1
  C  C173  1  0.85630000  0.41650000  0.28420000  1
  C  C174  1  0.86030000  0.73440000  0.65440000  1
  C  C175  1  0.86770000  0.81960000  0.37340000  1
  C  C176  1  0.87700000  0.63470000  0.96800000  1
  C  C177  1  0.87930000  0.89940000  0.61060000  1
  C  C178  1  0.89440000  0.38070000  0.22440000  1
  C  C179  1  0.91900000  0.94800000  0.21290000  1
  C  C180  1  0.92640000  0.52820000  0.32880000  1
  C  C181  1  0.93970000  0.39070000  0.83790000  1
  C  C182  1  0.96200000  0.31750000  0.48870000  1
  C  C183  1  0.98290000  0.55090000  0.79220000  1
  N  N184  1  0.01600000  0.32980000  0.86665000  1
  N  N185  1  0.02720000  0.46820000  0.82543000  1
  N  N186  1  0.06430000  0.62710000  0.55600000  1
  N  N187  1  0.07790000  0.07900000  0.85209000  1
  N  N188  1  0.07890000  0.25920000  0.00003000  1
  N  N189  1  0.15810000  0.74180000  0.50299000  1
  N  N190  1  0.16640000  0.46290000  0.84860000  1
  N  N191  1  0.16750000  0.98610000  0.77320000  1
  N  N192  1  0.19660000  0.18550000  0.37642000  1
  N  N193  1  0.21220000  0.04860000  0.41865000  1
  N  N194  1  0.21240000  0.65500000  0.57856000  1
  N  N195  1  0.22240000  0.38800000  0.08960000  1
  N  N196  1  0.22430000  0.97170000  0.83434000  1
  N  N197  1  0.24410000  0.28940000  0.09410000  1
  N  N198  1  0.29490000  0.66930000  0.30204000  1
  N  N199  1  0.30470000  0.80400000  0.39126000  1
  N  N200  1  0.34150000  0.19160000  0.39870000  1
  N  N201  1  0.40630000  0.67350000  0.35579000  1
  N  N202  1  0.59370000  0.32650000  0.64421000  1
  N  N203  1  0.65850000  0.80840000  0.60130000  1
  N  N204  1  0.69530000  0.19600000  0.60874000  1
  N  N205  1  0.70510000  0.33070000  0.69796000  1
  N  N206  1  0.75590000  0.71060000  0.90590000  1
  N  N207  1  0.77570000  0.02830000  0.16566000  1
  N  N208  1  0.77760000  0.61200000  0.91040000  1
  N  N209  1  0.78760000  0.34500000  0.42144000  1
  N  N210  1  0.78780000  0.95140000  0.58135000  1
  N  N211  1  0.80340000  0.81450000  0.62358000  1
  N  N212  1  0.83250000  0.01390000  0.22680000  1
  N  N213  1  0.83360000  0.53710000  0.15140000  1
  N  N214  1  0.84190000  0.25820000  0.49701000  1
  N  N215  1  0.92110000  0.74080000  0.99997000  1
  N  N216  1  0.92210000  0.92100000  0.14791000  1
  N  N217  1  0.93570000  0.37290000  0.44400000  1
  N  N218  1  0.97280000  0.53180000  0.17457000  1
  N  N219  1  0.98400000  0.67020000  0.13335000  1
  Cl  Cl220  1  0.20325000  0.96675000  0.05210000  1
  Cl  Cl221  1  0.79675000  0.03325000  0.94790000  1
  O  O222  1  0.01230000  0.15720000  0.63920000  1
  O  O223  1  0.15490000  0.21950000  0.58010000  1
  O  O224  1  0.15600000  0.98500000  0.55984000  1
  O  O225  1  0.25670000  0.89720000  0.21214000  1
  O  O226  1  0.30130000  0.77730000  0.13250000  1
  O  O227  1  0.38040000  0.98860000  0.55261000  1
  O  O228  1  0.61960000  0.01140000  0.44739000  1
  O  O229  1  0.69870000  0.22270000  0.86750000  1
  O  O230  1  0.74330000  0.10280000  0.78786000  1
  O  O231  1  0.84400000  0.01500000  0.44016000  1
  O  O232  1  0.84510000  0.78050000  0.41990000  1
  O  O233  1  0.98770000  0.84280000  0.36080000  1
