# generated using pymatgen
data_CuH6C6(NO2)2
_symmetry_space_group_name_H-M   'P 1'
_cell_length_a   18.62066713
_cell_length_b   18.62066713
_cell_length_c   18.62066713
_cell_angle_alpha   60.00000000
_cell_angle_beta   60.00000000
_cell_angle_gamma   60.00000000
_symmetry_Int_Tables_number   1
_chemical_formula_structural   CuH6C6(NO2)2
_chemical_formula_sum   'Cu12 H72 C72 N24 O48'
_cell_volume   4565.31461622
_cell_formula_units_Z   12
loop_
 _symmetry_equiv_pos_site_id
 _symmetry_equiv_pos_as_xyz
  1  'x, y, z'
loop_
 _atom_site_type_symbol
 _atom_site_label
 _atom_site_symmetry_multiplicity
 _atom_site_fract_x
 _atom_site_fract_y
 _atom_site_fract_z
 _atom_site_occupancy
  C  C0  1  0.02440000  0.83720000  0.56920000  1
  C  C1  1  0.43080000  0.43080000  0.16280000  1
  C  C2  1  0.83720000  0.02440000  0.56920000  1
  C  C3  1  0.43080000  0.43080000  0.97560000  1
  C  C4  1  0.03300000  0.74260000  0.61220000  1
  C  C5  1  0.38780000  0.38780000  0.25740000  1
  C  C6  1  0.74260000  0.03300000  0.61220000  1
  C  C7  1  0.38780000  0.38780000  0.96700000  1
  C  C8  1  0.03430000  0.69870000  0.69870000  1
  C  C9  1  0.43170000  0.30130000  0.30130000  1
  C  C10  1  0.03430000  0.69870000  0.56830000  1
  C  C11  1  0.30130000  0.43170000  0.30130000  1
  C  C12  1  0.69870000  0.03430000  0.69870000  1
  C  C13  1  0.43170000  0.30130000  0.96570000  1
  C  C14  1  0.69870000  0.03430000  0.56830000  1
  C  C15  1  0.30130000  0.43170000  0.96570000  1
  C  C16  1  0.03300000  0.61220000  0.74260000  1
  C  C17  1  0.38780000  0.25740000  0.38780000  1
  C  C18  1  0.03300000  0.61220000  0.61220000  1
  C  C19  1  0.25740000  0.38780000  0.38780000  1
  C  C20  1  0.61220000  0.03300000  0.74260000  1
  C  C21  1  0.38780000  0.25740000  0.96700000  1
  C  C22  1  0.61220000  0.03300000  0.61220000  1
  C  C23  1  0.25740000  0.38780000  0.96700000  1
  C  C24  1  0.03430000  0.56830000  0.69870000  1
  C  C25  1  0.30130000  0.30130000  0.43170000  1
  C  C26  1  0.56830000  0.03430000  0.69870000  1
  C  C27  1  0.30130000  0.30130000  0.96570000  1
  C  C28  1  0.02440000  0.56920000  0.83720000  1
  C  C29  1  0.43080000  0.16280000  0.43080000  1
  C  C30  1  0.02440000  0.56920000  0.56920000  1
  C  C31  1  0.16280000  0.43080000  0.43080000  1
  C  C32  1  0.56920000  0.02440000  0.83720000  1
  C  C33  1  0.43080000  0.16280000  0.97560000  1
  C  C34  1  0.56920000  0.02440000  0.56920000  1
  C  C35  1  0.16280000  0.43080000  0.97560000  1
  C  C36  1  0.83720000  0.56920000  0.02440000  1
  C  C37  1  0.43080000  0.97560000  0.43080000  1
  C  C38  1  0.56920000  0.83720000  0.02440000  1
  C  C39  1  0.43080000  0.97560000  0.16280000  1
  C  C40  1  0.83720000  0.56920000  0.56920000  1
  C  C41  1  0.97560000  0.43080000  0.43080000  1
  C  C42  1  0.56920000  0.83720000  0.56920000  1
  C  C43  1  0.97560000  0.43080000  0.16280000  1
  C  C44  1  0.69870000  0.69870000  0.03430000  1
  C  C45  1  0.43170000  0.96570000  0.30130000  1
  C  C46  1  0.69870000  0.69870000  0.56830000  1
  C  C47  1  0.96570000  0.43170000  0.30130000  1
  C  C48  1  0.74260000  0.61220000  0.03300000  1
  C  C49  1  0.38780000  0.96700000  0.38780000  1
  C  C50  1  0.61220000  0.74260000  0.03300000  1
  C  C51  1  0.38780000  0.96700000  0.25740000  1
  C  C52  1  0.74260000  0.61220000  0.61220000  1
  C  C53  1  0.96700000  0.38780000  0.38780000  1
  C  C54  1  0.61220000  0.74260000  0.61220000  1
  C  C55  1  0.96700000  0.38780000  0.25740000  1
  C  C56  1  0.69870000  0.56830000  0.03430000  1
  C  C57  1  0.30130000  0.96570000  0.43170000  1
  C  C58  1  0.56830000  0.69870000  0.03430000  1
  C  C59  1  0.30130000  0.96570000  0.30130000  1
  C  C60  1  0.69870000  0.56830000  0.69870000  1
  C  C61  1  0.96570000  0.30130000  0.43170000  1
  C  C62  1  0.56830000  0.69870000  0.69870000  1
  C  C63  1  0.96570000  0.30130000  0.30130000  1
  C  C64  1  0.61220000  0.61220000  0.03300000  1
  C  C65  1  0.25740000  0.96700000  0.38780000  1
  C  C66  1  0.61220000  0.61220000  0.74260000  1
  C  C67  1  0.96700000  0.25740000  0.38780000  1
  C  C68  1  0.56920000  0.56920000  0.02440000  1
  C  C69  1  0.16280000  0.97560000  0.43080000  1
  C  C70  1  0.56920000  0.56920000  0.83720000  1
  C  C71  1  0.97560000  0.16280000  0.43080000  1
  Cu  Cu72  1  1.00000000  1.00000000  0.57060000  1
  Cu  Cu73  1  0.57060000  0.42940000  1.00000000  1
  Cu  Cu74  1  1.00000000  0.00000000  0.42940000  1
  Cu  Cu75  1  0.42940000  0.57060000  1.00000000  1
  Cu  Cu76  1  0.00000000  0.57060000  1.00000000  1
  Cu  Cu77  1  0.57060000  0.00000000  0.42940000  1
  Cu  Cu78  1  0.57060000  1.00000000  1.00000000  1
  Cu  Cu79  1  0.00000000  0.57060000  0.42940000  1
  Cu  Cu80  1  1.00000000  0.42940000  0.00000000  1
  Cu  Cu81  1  0.42940000  0.00000000  0.57060000  1
  Cu  Cu82  1  0.00000000  0.42940000  0.57060000  1
  Cu  Cu83  1  0.42940000  0.00000000  0.00000000  1
  H  H84  1  0.03560000  0.79660000  0.71660000  1
  H  H85  1  0.54880000  0.28340000  0.20340000  1
  H  H86  1  0.79660000  0.03560000  0.71660000  1
  H  H87  1  0.54880000  0.28340000  0.96440000  1
  H  H88  1  0.03560000  0.79660000  0.45120000  1
  H  H89  1  0.28340000  0.54880000  0.20340000  1
  H  H90  1  0.79660000  0.03560000  0.45120000  1
  H  H91  1  0.28340000  0.54880000  0.96440000  1
  H  H92  1  0.03610000  0.72690000  0.72690000  1
  H  H93  1  0.48990000  0.27310000  0.27310000  1
  H  H94  1  0.03610000  0.72690000  0.51010000  1
  H  H95  1  0.27310000  0.48990000  0.27310000  1
  H  H96  1  0.72690000  0.03610000  0.72690000  1
  H  H97  1  0.48990000  0.27310000  0.96390000  1
  H  H98  1  0.72690000  0.03610000  0.51010000  1
  H  H99  1  0.27310000  0.48990000  0.96390000  1
  H  H100  1  0.03560000  0.71660000  0.79660000  1
  H  H101  1  0.54880000  0.20340000  0.28340000  1
  H  H102  1  0.71660000  0.03560000  0.79660000  1
  H  H103  1  0.54880000  0.20340000  0.96440000  1
  H  H104  1  0.03560000  0.71660000  0.45120000  1
  H  H105  1  0.20340000  0.54880000  0.28340000  1
  H  H106  1  0.71660000  0.03560000  0.45120000  1
  H  H107  1  0.20340000  0.54880000  0.96440000  1
  H  H108  1  0.03610000  0.51010000  0.72690000  1
  H  H109  1  0.27310000  0.27310000  0.48990000  1
  H  H110  1  0.51010000  0.03610000  0.72690000  1
  H  H111  1  0.27310000  0.27310000  0.96390000  1
  H  H112  1  0.79660000  0.71660000  0.03560000  1
  H  H113  1  0.54880000  0.96440000  0.28340000  1
  H  H114  1  0.71660000  0.79660000  0.03560000  1
  H  H115  1  0.54880000  0.96440000  0.20340000  1
  H  H116  1  0.79660000  0.71660000  0.45120000  1
  H  H117  1  0.96440000  0.54880000  0.28340000  1
  H  H118  1  0.71660000  0.79660000  0.45120000  1
  H  H119  1  0.96440000  0.54880000  0.20340000  1
  H  H120  1  0.03560000  0.45120000  0.79660000  1
  H  H121  1  0.28340000  0.20340000  0.54880000  1
  H  H122  1  0.03560000  0.45120000  0.71660000  1
  H  H123  1  0.20340000  0.28340000  0.54880000  1
  H  H124  1  0.45120000  0.03560000  0.79660000  1
  H  H125  1  0.28340000  0.20340000  0.96440000  1
  H  H126  1  0.45120000  0.03560000  0.71660000  1
  H  H127  1  0.20340000  0.28340000  0.96440000  1
  H  H128  1  0.72690000  0.72690000  0.03610000  1
  H  H129  1  0.48990000  0.96390000  0.27310000  1
  H  H130  1  0.72690000  0.72690000  0.51010000  1
  H  H131  1  0.96390000  0.48990000  0.27310000  1
  H  H132  1  0.79660000  0.45120000  0.03560000  1
  H  H133  1  0.28340000  0.96440000  0.54880000  1
  H  H134  1  0.79660000  0.45120000  0.71660000  1
  H  H135  1  0.96440000  0.28340000  0.54880000  1
  H  H136  1  0.45120000  0.79660000  0.03560000  1
  H  H137  1  0.28340000  0.96440000  0.20340000  1
  H  H138  1  0.45120000  0.79660000  0.71660000  1
  H  H139  1  0.96440000  0.28340000  0.20340000  1
  H  H140  1  0.72690000  0.51010000  0.03610000  1
  H  H141  1  0.27310000  0.96390000  0.48990000  1
  H  H142  1  0.51010000  0.72690000  0.03610000  1
  H  H143  1  0.27310000  0.96390000  0.27310000  1
  H  H144  1  0.72690000  0.51010000  0.72690000  1
  H  H145  1  0.96390000  0.27310000  0.48990000  1
  H  H146  1  0.51010000  0.72690000  0.72690000  1
  H  H147  1  0.96390000  0.27310000  0.27310000  1
  H  H148  1  0.71660000  0.45120000  0.03560000  1
  H  H149  1  0.20340000  0.96440000  0.54880000  1
  H  H150  1  0.71660000  0.45120000  0.79660000  1
  H  H151  1  0.96440000  0.20340000  0.54880000  1
  H  H152  1  0.45120000  0.71660000  0.03560000  1
  H  H153  1  0.20340000  0.96440000  0.28340000  1
  H  H154  1  0.45120000  0.71660000  0.79660000  1
  H  H155  1  0.96440000  0.20340000  0.28340000  1
  N  N156  1  0.03950000  0.74230000  0.74230000  1
  N  N157  1  0.52410000  0.25770000  0.25770000  1
  N  N158  1  0.03950000  0.74230000  0.47590000  1
  N  N159  1  0.25770000  0.52410000  0.25770000  1
  N  N160  1  0.74230000  0.03950000  0.74230000  1
  N  N161  1  0.52410000  0.25770000  0.96050000  1
  N  N162  1  0.74230000  0.03950000  0.47590000  1
  N  N163  1  0.25770000  0.52410000  0.96050000  1
  N  N164  1  0.03950000  0.47590000  0.74230000  1
  N  N165  1  0.25770000  0.25770000  0.52410000  1
  N  N166  1  0.47590000  0.03950000  0.74230000  1
  N  N167  1  0.25770000  0.25770000  0.96050000  1
  N  N168  1  0.74230000  0.74230000  0.03950000  1
  N  N169  1  0.52410000  0.96050000  0.25770000  1
  N  N170  1  0.74230000  0.74230000  0.47590000  1
  N  N171  1  0.96050000  0.52410000  0.25770000  1
  N  N172  1  0.74230000  0.47590000  0.03950000  1
  N  N173  1  0.25770000  0.96050000  0.52410000  1
  N  N174  1  0.47590000  0.74230000  0.03950000  1
  N  N175  1  0.25770000  0.96050000  0.25770000  1
  N  N176  1  0.74230000  0.47590000  0.74230000  1
  N  N177  1  0.96050000  0.25770000  0.52410000  1
  N  N178  1  0.47590000  0.74230000  0.74230000  1
  N  N179  1  0.96050000  0.25770000  0.25770000  1
  O  O180  1  0.02120000  0.87420000  0.61200000  1
  O  O181  1  0.50740000  0.38800000  0.12580000  1
  O  O182  1  0.02120000  0.87420000  0.49260000  1
  O  O183  1  0.38800000  0.50740000  0.12580000  1
  O  O184  1  0.87420000  0.02120000  0.61200000  1
  O  O185  1  0.50740000  0.38800000  0.97880000  1
  O  O186  1  0.87420000  0.02120000  0.49260000  1
  O  O187  1  0.38800000  0.50740000  0.97880000  1
  O  O188  1  0.02120000  0.61200000  0.87420000  1
  O  O189  1  0.50740000  0.12580000  0.38800000  1
  O  O190  1  0.02120000  0.61200000  0.49260000  1
  O  O191  1  0.12580000  0.50740000  0.38800000  1
  O  O192  1  0.61200000  0.02120000  0.87420000  1
  O  O193  1  0.50740000  0.12580000  0.97880000  1
  O  O194  1  0.61200000  0.02120000  0.49260000  1
  O  O195  1  0.12580000  0.50740000  0.97880000  1
  O  O196  1  0.02120000  0.49260000  0.87420000  1
  O  O197  1  0.38800000  0.12580000  0.50740000  1
  O  O198  1  0.02120000  0.49260000  0.61200000  1
  O  O199  1  0.12580000  0.38800000  0.50740000  1
  O  O200  1  0.49260000  0.02120000  0.87420000  1
  O  O201  1  0.38800000  0.12580000  0.97880000  1
  O  O202  1  0.49260000  0.02120000  0.61200000  1
  O  O203  1  0.12580000  0.38800000  0.97880000  1
  O  O204  1  0.87420000  0.61200000  0.02120000  1
  O  O205  1  0.50740000  0.97880000  0.38800000  1
  O  O206  1  0.61200000  0.87420000  0.02120000  1
  O  O207  1  0.50740000  0.97880000  0.12580000  1
  O  O208  1  0.87420000  0.61200000  0.49260000  1
  O  O209  1  0.97880000  0.50740000  0.38800000  1
  O  O210  1  0.61200000  0.87420000  0.49260000  1
  O  O211  1  0.97880000  0.50740000  0.12580000  1
  O  O212  1  0.87420000  0.49260000  0.02120000  1
  O  O213  1  0.38800000  0.97880000  0.50740000  1
  O  O214  1  0.49260000  0.87420000  0.02120000  1
  O  O215  1  0.38800000  0.97880000  0.12580000  1
  O  O216  1  0.87420000  0.49260000  0.61200000  1
  O  O217  1  0.97880000  0.38800000  0.50740000  1
  O  O218  1  0.49260000  0.87420000  0.61200000  1
  O  O219  1  0.97880000  0.38800000  0.12580000  1
  O  O220  1  0.61200000  0.49260000  0.02120000  1
  O  O221  1  0.12580000  0.97880000  0.50740000  1
  O  O222  1  0.49260000  0.61200000  0.02120000  1
  O  O223  1  0.12580000  0.97880000  0.38800000  1
  O  O224  1  0.61200000  0.49260000  0.87420000  1
  O  O225  1  0.97880000  0.12580000  0.50740000  1
  O  O226  1  0.49260000  0.61200000  0.87420000  1
  O  O227  1  0.97880000  0.12580000  0.38800000  1
