# generated using pymatgen
data_TmH24C27(SO3)2
_symmetry_space_group_name_H-M   'P 1'
_cell_length_a   9.02460000
_cell_length_b   14.81110000
_cell_length_c   23.06100000
_cell_angle_alpha   90.00000000
_cell_angle_beta   90.00000000
_cell_angle_gamma   92.77320000
_symmetry_Int_Tables_number   1
_chemical_formula_structural   TmH24C27(SO3)2
_chemical_formula_sum   'Tm4 H96 C108 S8 O24'
_cell_volume   3078.82143503
_cell_formula_units_Z   4
loop_
 _symmetry_equiv_pos_site_id
 _symmetry_equiv_pos_as_xyz
  1  'x, y, z'
loop_
 _atom_site_type_symbol
 _atom_site_label
 _atom_site_symmetry_multiplicity
 _atom_site_fract_x
 _atom_site_fract_y
 _atom_site_fract_z
 _atom_site_occupancy
  Tm  Tm0  1  0.20991000  0.00384000  0.98157000  1
  Tm  Tm1  1  0.29009000  0.49616000  0.48157000  1
  Tm  Tm2  1  0.70991000  0.50384000  0.51843000  1
  Tm  Tm3  1  0.79009000  0.99616000  0.01843000  1
  H  H4  1  0.00090000  0.31150000  0.10630000  1
  H  H5  1  0.01850000  0.79320000  0.61230000  1
  H  H6  1  0.06400000  0.49000000  0.07200000  1
  H  H7  1  0.06450000  0.89020000  0.63530000  1
  H  H8  1  0.07400000  0.02000000  0.56500000  1
  H  H9  1  0.09100000  0.43700000  0.87400000  1
  H  H10  1  0.09200000  0.90700000  0.38500000  1
  H  H11  1  0.11840000  0.23700000  0.10450000  1
  H  H12  1  0.13230000  0.71210000  0.24040000  1
  H  H13  1  0.13310000  0.30600000  0.73130000  1
  H  H14  1  0.15410000  0.21930000  0.69380000  1
  H  H15  1  0.16360000  0.33420000  0.12730000  1
  H  H16  1  0.16930000  0.64100000  0.85470000  1
  H  H17  1  0.17480000  0.80860000  0.21590000  1
  H  H18  1  0.17500000  0.10700000  0.34100000  1
  H  H19  1  0.17880000  0.25100000  0.47940000  1
  H  H20  1  0.18170000  0.81550000  0.63300000  1
  H  H21  1  0.18960000  0.31530000  0.66710000  1
  H  H22  1  0.19200000  0.72320000  0.17680000  1
  H  H23  1  0.19500000  0.71400000  0.99800000  1
  H  H24  1  0.20400000  0.37100000  0.79300000  1
  H  H25  1  0.20720000  0.83650000  0.30790000  1
  H  H26  1  0.21500000  0.10500000  0.49400000  1
  H  H27  1  0.22000000  0.56400000  0.00800000  1
  H  H28  1  0.28000000  0.93600000  0.50800000  1
  H  H29  1  0.28500000  0.39500000  0.99400000  1
  H  H30  1  0.29280000  0.66350000  0.80790000  1
  H  H31  1  0.29600000  0.12900000  0.29300000  1
  H  H32  1  0.30500000  0.78600000  0.49800000  1
  H  H33  1  0.30800000  0.77680000  0.67680000  1
  H  H34  1  0.31040000  0.18470000  0.16710000  1
  H  H35  1  0.31830000  0.68450000  0.13300000  1
  H  H36  1  0.32120000  0.24900000  0.97940000  1
  H  H37  1  0.32500000  0.39300000  0.84100000  1
  H  H38  1  0.32520000  0.69140000  0.71590000  1
  H  H39  1  0.33070000  0.85900000  0.35470000  1
  H  H40  1  0.33640000  0.16580000  0.62730000  1
  H  H41  1  0.34590000  0.28070000  0.19380000  1
  H  H42  1  0.36690000  0.19400000  0.23130000  1
  H  H43  1  0.36770000  0.78790000  0.74040000  1
  H  H44  1  0.38160000  0.26300000  0.60450000  1
  H  H45  1  0.40800000  0.59300000  0.88500000  1
  H  H46  1  0.40900000  0.06300000  0.37400000  1
  H  H47  1  0.42600000  0.48000000  0.06500000  1
  H  H48  1  0.43550000  0.60980000  0.13530000  1
  H  H49  1  0.43600000  0.01000000  0.57200000  1
  H  H50  1  0.48150000  0.70680000  0.11230000  1
  H  H51  1  0.49910000  0.18850000  0.60630000  1
  H  H52  1  0.50090000  0.81150000  0.39370000  1
  H  H53  1  0.51850000  0.29320000  0.88770000  1
  H  H54  1  0.56400000  0.99000000  0.42800000  1
  H  H55  1  0.56450000  0.39020000  0.86470000  1
  H  H56  1  0.57400000  0.52000000  0.93500000  1
  H  H57  1  0.59100000  0.93700000  0.62600000  1
  H  H58  1  0.59200000  0.40700000  0.11500000  1
  H  H59  1  0.61840000  0.73700000  0.39550000  1
  H  H60  1  0.63230000  0.21210000  0.25960000  1
  H  H61  1  0.63310000  0.80600000  0.76870000  1
  H  H62  1  0.65410000  0.71930000  0.80620000  1
  H  H63  1  0.66360000  0.83420000  0.37270000  1
  H  H64  1  0.66930000  0.14100000  0.64530000  1
  H  H65  1  0.67480000  0.30860000  0.28410000  1
  H  H66  1  0.67500000  0.60700000  0.15900000  1
  H  H67  1  0.67880000  0.75100000  0.02060000  1
  H  H68  1  0.68170000  0.31550000  0.86700000  1
  H  H69  1  0.68960000  0.81530000  0.83290000  1
  H  H70  1  0.69200000  0.22320000  0.32320000  1
  H  H71  1  0.69500000  0.21400000  0.50200000  1
  H  H72  1  0.70400000  0.87100000  0.70700000  1
  H  H73  1  0.70720000  0.33650000  0.19210000  1
  H  H74  1  0.71500000  0.60500000  0.00600000  1
  H  H75  1  0.72000000  0.06400000  0.49200000  1
  H  H76  1  0.78000000  0.43600000  0.99200000  1
  H  H77  1  0.78500000  0.89500000  0.50600000  1
  H  H78  1  0.79280000  0.16350000  0.69210000  1
  H  H79  1  0.79600000  0.62900000  0.20700000  1
  H  H80  1  0.80500000  0.28600000  0.00200000  1
  H  H81  1  0.80800000  0.27680000  0.82320000  1
  H  H82  1  0.81040000  0.68470000  0.33290000  1
  H  H83  1  0.81830000  0.18450000  0.36700000  1
  H  H84  1  0.82120000  0.74900000  0.52060000  1
  H  H85  1  0.82500000  0.89300000  0.65900000  1
  H  H86  1  0.82520000  0.19140000  0.78410000  1
  H  H87  1  0.83070000  0.35900000  0.14530000  1
  H  H88  1  0.83640000  0.66580000  0.87270000  1
  H  H89  1  0.84590000  0.78070000  0.30620000  1
  H  H90  1  0.86690000  0.69400000  0.26870000  1
  H  H91  1  0.86770000  0.28790000  0.75960000  1
  H  H92  1  0.88160000  0.76300000  0.89550000  1
  H  H93  1  0.90800000  0.09300000  0.61500000  1
  H  H94  1  0.90900000  0.56300000  0.12600000  1
  H  H95  1  0.92600000  0.98000000  0.43500000  1
  H  H96  1  0.93550000  0.10980000  0.36470000  1
  H  H97  1  0.93600000  0.51000000  0.92800000  1
  H  H98  1  0.98150000  0.20680000  0.38770000  1
  H  H99  1  0.99910000  0.68850000  0.89370000  1
  C  C100  1  0.00480000  0.63730000  0.47950000  1
  C  C101  1  0.01500000  0.26570000  0.53773000  1
  C  C102  1  0.01960000  0.83040000  0.04350000  1
  C  C103  1  0.02910000  0.73090000  0.05630000  1
  C  C104  1  0.03600000  0.79710000  0.70160000  1
  C  C105  1  0.04200000  0.25940000  0.18610000  1
  C  C106  1  0.04490000  0.40960000  0.89920000  1
  C  C107  1  0.04610000  0.87170000  0.41030000  1
  C  C108  1  0.05810000  0.08320000  0.55810000  1
  C  C109  1  0.06160000  0.54790000  0.06910000  1
  C  C110  1  0.06260000  0.31770000  0.90428000  1
  C  C111  1  0.06980000  0.78040000  0.41885000  1
  C  C112  1  0.07920000  0.82680000  0.63970000  1
  C  C113  1  0.08510000  0.28810000  0.12560000  1
  C  C114  1  0.10260000  0.73220000  0.79340000  1
  C  C115  1  0.10850000  0.19360000  0.27840000  1
  C  C116  1  0.10950000  0.04640000  0.09780000  1
  C  C117  1  0.12100000  0.21990000  0.50700000  1
  C  C118  1  0.13550000  0.68600000  0.02540000  1
  C  C119  1  0.14180000  0.76150000  0.73760000  1
  C  C120  1  0.14230000  0.12910000  0.51650000  1
  C  C121  1  0.14890000  0.22350000  0.22280000  1
  C  C122  1  0.15180000  0.59490000  0.03080000  1
  C  C123  1  0.19250000  0.27960000  0.70180000  1
  C  C124  1  0.19950000  0.74630000  0.21570000  1
  C  C125  1  0.21640000  0.68900000  0.83160000  1
  C  C126  1  0.22200000  0.15180000  0.31690000  1
  C  C127  1  0.27800000  0.34820000  0.81690000  1
  C  C128  1  0.28360000  0.81100000  0.33160000  1
  C  C129  1  0.30050000  0.75370000  0.71570000  1
  C  C130  1  0.30750000  0.22040000  0.20180000  1
  C  C131  1  0.34820000  0.90510000  0.53080000  1
  C  C132  1  0.35110000  0.27650000  0.72280000  1
  C  C133  1  0.35770000  0.37090000  0.01650000  1
  C  C134  1  0.35820000  0.73850000  0.23760000  1
  C  C135  1  0.36450000  0.81400000  0.52540000  1
  C  C136  1  0.37900000  0.28010000  0.00700000  1
  C  C137  1  0.39050000  0.45360000  0.59780000  1
  C  C138  1  0.39150000  0.30640000  0.77840000  1
  C  C139  1  0.39740000  0.76780000  0.29340000  1
  C  C140  1  0.41490000  0.21190000  0.62560000  1
  C  C141  1  0.42080000  0.67320000  0.13970000  1
  C  C142  1  0.43020000  0.71960000  0.91885000  1
  C  C143  1  0.43740000  0.18230000  0.40428000  1
  C  C144  1  0.43840000  0.95210000  0.56910000  1
  C  C145  1  0.44190000  0.41680000  0.05810000  1
  C  C146  1  0.45390000  0.62830000  0.91030000  1
  C  C147  1  0.45510000  0.09040000  0.39920000  1
  C  C148  1  0.45800000  0.24060000  0.68610000  1
  C  C149  1  0.46400000  0.70290000  0.20160000  1
  C  C150  1  0.47090000  0.76910000  0.55630000  1
  C  C151  1  0.48040000  0.66960000  0.54350000  1
  C  C152  1  0.48500000  0.23430000  0.03773000  1
  C  C153  1  0.49520000  0.86270000  0.97950000  1
  C  C154  1  0.50480000  0.13730000  0.02050000  1
  C  C155  1  0.51500000  0.76570000  0.96227000  1
  C  C156  1  0.51960000  0.33040000  0.45650000  1
  C  C157  1  0.52910000  0.23090000  0.44370000  1
  C  C158  1  0.53600000  0.29710000  0.79840000  1
  C  C159  1  0.54200000  0.75940000  0.31390000  1
  C  C160  1  0.54490000  0.90960000  0.60080000  1
  C  C161  1  0.54610000  0.37170000  0.08970000  1
  C  C162  1  0.55810000  0.58320000  0.94190000  1
  C  C163  1  0.56160000  0.04790000  0.43090000  1
  C  C164  1  0.56260000  0.81770000  0.59572000  1
  C  C165  1  0.56980000  0.28040000  0.08115000  1
  C  C166  1  0.57920000  0.32680000  0.86030000  1
  C  C167  1  0.58510000  0.78810000  0.37440000  1
  C  C168  1  0.60260000  0.23220000  0.70660000  1
  C  C169  1  0.60850000  0.69360000  0.22160000  1
  C  C170  1  0.60950000  0.54640000  0.40220000  1
  C  C171  1  0.62100000  0.71990000  0.99300000  1
  C  C172  1  0.63550000  0.18600000  0.47460000  1
  C  C173  1  0.64180000  0.26150000  0.76240000  1
  C  C174  1  0.64230000  0.62910000  0.98350000  1
  C  C175  1  0.64890000  0.72350000  0.27720000  1
  C  C176  1  0.65180000  0.09490000  0.46920000  1
  C  C177  1  0.69250000  0.77960000  0.79820000  1
  C  C178  1  0.69950000  0.24630000  0.28430000  1
  C  C179  1  0.71640000  0.18900000  0.66840000  1
  C  C180  1  0.72200000  0.65180000  0.18310000  1
  C  C181  1  0.77800000  0.84820000  0.68310000  1
  C  C182  1  0.78360000  0.31100000  0.16840000  1
  C  C183  1  0.80050000  0.25370000  0.78430000  1
  C  C184  1  0.80750000  0.72040000  0.29820000  1
  C  C185  1  0.84820000  0.40510000  0.96920000  1
  C  C186  1  0.85110000  0.77650000  0.77720000  1
  C  C187  1  0.85770000  0.87090000  0.48350000  1
  C  C188  1  0.85820000  0.23850000  0.26240000  1
  C  C189  1  0.86450000  0.31400000  0.97460000  1
  C  C190  1  0.87900000  0.78010000  0.49300000  1
  C  C191  1  0.89050000  0.95360000  0.90220000  1
  C  C192  1  0.89150000  0.80640000  0.72160000  1
  C  C193  1  0.89740000  0.26780000  0.20660000  1
  C  C194  1  0.91490000  0.71190000  0.87440000  1
  C  C195  1  0.92080000  0.17320000  0.36030000  1
  C  C196  1  0.93020000  0.21960000  0.58115000  1
  C  C197  1  0.93740000  0.68230000  0.09572000  1
  C  C198  1  0.93840000  0.45210000  0.93090000  1
  C  C199  1  0.94190000  0.91680000  0.44190000  1
  C  C200  1  0.95390000  0.12830000  0.58970000  1
  C  C201  1  0.95510000  0.59040000  0.10080000  1
  C  C202  1  0.95800000  0.74060000  0.81390000  1
  C  C203  1  0.96400000  0.20290000  0.29840000  1
  C  C204  1  0.97090000  0.26910000  0.94370000  1
  C  C205  1  0.98040000  0.16960000  0.95650000  1
  C  C206  1  0.98500000  0.73430000  0.46227000  1
  C  C207  1  0.99520000  0.36270000  0.52050000  1
  S  S208  1  0.19410000  0.25966000  0.86293000  1
  S  S209  1  0.20279000  0.72274000  0.37836000  1
  S  S210  1  0.29721000  0.77726000  0.87836000  1
  S  S211  1  0.30590000  0.24034000  0.36293000  1
  S  S212  1  0.69410000  0.75966000  0.63707000  1
  S  S213  1  0.70279000  0.22274000  0.12164000  1
  S  S214  1  0.79721000  0.27726000  0.62164000  1
  S  S215  1  0.80590000  0.74034000  0.13707000  1
  O  O216  1  0.01910000  0.04450000  0.05552000  1
  O  O217  1  0.08940000  0.40100000  0.48710000  1
  O  O218  1  0.10730000  0.13770000  0.95325000  1
  O  O219  1  0.11690000  0.59950000  0.46054000  1
  O  O220  1  0.13800000  0.87310000  0.02961000  1
  O  O221  1  0.24520000  0.03920000  0.08800000  1
  O  O222  1  0.25480000  0.46080000  0.58800000  1
  O  O223  1  0.36200000  0.62690000  0.52961000  1
  O  O224  1  0.38310000  0.90050000  0.96054000  1
  O  O225  1  0.39270000  0.36230000  0.45325000  1
  O  O226  1  0.41060000  0.09900000  0.98710000  1
  O  O227  1  0.48090000  0.45550000  0.55552000  1
  O  O228  1  0.51910000  0.54450000  0.44448000  1
  O  O229  1  0.58940000  0.90100000  0.01290000  1
  O  O230  1  0.60730000  0.63770000  0.54675000  1
  O  O231  1  0.61690000  0.09950000  0.03946000  1
  O  O232  1  0.63800000  0.37310000  0.47039000  1
  O  O233  1  0.74520000  0.53920000  0.41200000  1
  O  O234  1  0.75480000  0.96080000  0.91200000  1
  O  O235  1  0.86200000  0.12690000  0.97039000  1
  O  O236  1  0.88310000  0.40050000  0.53946000  1
  O  O237  1  0.89270000  0.86230000  0.04675000  1
  O  O238  1  0.91060000  0.59900000  0.51290000  1
  O  O239  1  0.98090000  0.95550000  0.94448000  1
