# generated using pymatgen
data_AgH8C11N2O
_symmetry_space_group_name_H-M   'P 1'
_cell_length_a   8.35940000
_cell_length_b   19.90940923
_cell_length_c   19.90940923
_cell_angle_alpha   118.07441594
_cell_angle_beta   98.04537396
_cell_angle_gamma   98.04537396
_symmetry_Int_Tables_number   1
_chemical_formula_structural   AgH8C11N2O
_chemical_formula_sum   'Ag6 H48 C66 N12 O6'
_cell_volume   2813.39743024
_cell_formula_units_Z   6
loop_
 _symmetry_equiv_pos_site_id
 _symmetry_equiv_pos_as_xyz
  1  'x, y, z'
loop_
 _atom_site_type_symbol
 _atom_site_label
 _atom_site_symmetry_multiplicity
 _atom_site_fract_x
 _atom_site_fract_y
 _atom_site_fract_z
 _atom_site_occupancy
  Ag  Ag0  1  0.18697333  0.53275000  0.50684000  1
  Ag  Ag1  1  0.65422333  0.97409000  0.46725000  1
  Ag  Ag2  1  0.31986667  0.50684000  0.97409000  1
  Ag  Ag3  1  0.68013333  0.49316000  0.02591000  1
  Ag  Ag4  1  0.34577667  0.02591000  0.53275000  1
  Ag  Ag5  1  0.81302667  0.46725000  0.49316000  1
  C  C6  1  0.21913000  0.77346000  0.22903000  1
  C  C7  1  0.42949000  0.40273000  0.60634000  1
  C  C8  1  0.76611000  0.31994000  0.71909000  1
  C  C9  1  0.29224000  0.75609000  0.28423000  1
  C  C10  1  0.34560000  0.45327000  0.59453000  1
  C  C11  1  0.44617000  0.39915000  0.68006000  1
  C  C12  1  0.27595000  0.84814000  0.24051000  1
  C  C13  1  0.50878000  0.64877000  0.45427000  1
  C  C14  1  0.06733000  0.65203000  0.46516000  1
  C  C15  1  0.95298000  0.71909000  0.39915000  1
  C  C16  1  0.61575000  0.59501000  0.53104000  1
  C  C17  1  0.86001000  0.80550000  0.35123000  1
  C  C18  1  0.41530000  0.81313000  0.34797000  1
  C  C19  1  0.53068000  0.64726000  0.52358000  1
  C  C20  1  0.00801000  0.71577000  0.47186000  1
  C  C21  1  0.82315000  0.39366000  0.79639000  1
  C  C22  1  0.97324000  0.79639000  0.40273000  1
  C  C23  1  0.40129000  0.90087000  0.30490000  1
  C  C24  1  0.46385000  0.47186000  0.75609000  1
  C  C25  1  0.88342000  0.87632000  0.35274000  1
  C  C26  1  0.94549000  0.45427000  0.80550000  1
  C  C27  1  0.75107000  0.40547000  0.85874000  1
  C  C28  1  0.39783000  0.46516000  0.81313000  1
  C  C29  1  0.09639000  0.69510000  0.59597000  1
  C  C30  1  0.10767000  0.85874000  0.45327000  1
  C  C31  1  0.99010000  0.77097000  0.54443000  1
  C  C32  1  0.55433000  0.54443000  0.77346000  1
  C  C33  1  0.02074000  0.93603000  0.40499000  1
  C  C34  1  0.03544000  0.75949000  0.60763000  1
  C  C35  1  0.99290000  0.52358000  0.87632000  1
  C  C36  1  0.57219000  0.60763000  0.84814000  1
  C  C37  1  0.91529000  0.53104000  0.93603000  1
  C  C38  1  0.49958000  0.59597000  0.90087000  1
  C  C39  1  0.50042000  0.40403000  0.09913000  1
  C  C40  1  0.08471000  0.46896000  0.06397000  1
  C  C41  1  0.42781000  0.39237000  0.15186000  1
  C  C42  1  0.00710000  0.47642000  0.12368000  1
  C  C43  1  0.96456000  0.24051000  0.39237000  1
  C  C44  1  0.97926000  0.06397000  0.59501000  1
  C  C45  1  0.44567000  0.45557000  0.22654000  1
  C  C46  1  0.00990000  0.22903000  0.45557000  1
  C  C47  1  0.89233000  0.14126000  0.54673000  1
  C  C48  1  0.90361000  0.30490000  0.40403000  1
  C  C49  1  0.60217000  0.53484000  0.18687000  1
  C  C50  1  0.24893000  0.59453000  0.14126000  1
  C  C51  1  0.05451000  0.54573000  0.19450000  1
  C  C52  1  0.11658000  0.12368000  0.64726000  1
  C  C53  1  0.53615000  0.52814000  0.24391000  1
  C  C54  1  0.59871000  0.09913000  0.69510000  1
  C  C55  1  0.02676000  0.20361000  0.59727000  1
  C  C56  1  0.17685000  0.60634000  0.20361000  1
  C  C57  1  0.99199000  0.28423000  0.52814000  1
  C  C58  1  0.46932000  0.35274000  0.47642000  1
  C  C59  1  0.58470000  0.18687000  0.65203000  1
  C  C60  1  0.13999000  0.19450000  0.64877000  1
  C  C61  1  0.38425000  0.40499000  0.46896000  1
  C  C62  1  0.04702000  0.28091000  0.60085000  1
  C  C63  1  0.93267000  0.34797000  0.53484000  1
  C  C64  1  0.49122000  0.35123000  0.54573000  1
  C  C65  1  0.72405000  0.15186000  0.75949000  1
  C  C66  1  0.55383000  0.60085000  0.31994000  1
  C  C67  1  0.65440000  0.54673000  0.40547000  1
  C  C68  1  0.70776000  0.24391000  0.71577000  1
  C  C69  1  0.23389000  0.68006000  0.28091000  1
  C  C70  1  0.57051000  0.59727000  0.39366000  1
  C  C71  1  0.78087000  0.22654000  0.77097000  1
  H  H72  1  0.07620000  0.61400000  0.41490000  1
  H  H73  1  0.22870000  0.86240000  0.20420000  1
  H  H74  1  0.76790000  0.76370000  0.31560000  1
  H  H75  1  0.86670000  0.26440000  0.81510000  1
  H  H76  1  0.30360000  0.48850000  0.63610000  1
  H  H77  1  0.45230000  0.68440000  0.44810000  1
  H  H78  1  0.63040000  0.59410000  0.57890000  1
  H  H79  1  0.46220000  0.80090000  0.38600000  1
  H  H80  1  0.80670000  0.88410000  0.31850000  1
  H  H81  1  0.99580000  0.44810000  0.76370000  1
  H  H82  1  0.33870000  0.41490000  0.80090000  1
  H  H83  1  0.66750000  0.36390000  0.85240000  1
  H  H84  1  0.48820000  0.68150000  0.56560000  1
  H  H85  1  0.44000000  0.95140000  0.31170000  1
  H  H86  1  0.60230000  0.55070000  0.73560000  1
  H  H87  1  0.12830000  0.68830000  0.63970000  1
  H  H88  1  0.18490000  0.85240000  0.48850000  1
  H  H89  1  0.94840000  0.81510000  0.55070000  1
  H  H90  1  0.03630000  0.98480000  0.40590000  1
  H  H91  1  0.48860000  0.36030000  0.04860000  1
  H  H92  1  0.05150000  0.42110000  0.01520000  1
  H  H93  1  0.07740000  0.56560000  0.88410000  1
  H  H94  1  0.02450000  0.79580000  0.65820000  1
  H  H95  1  0.36630000  0.34180000  0.13760000  1
  H  H96  1  0.63370000  0.65820000  0.86240000  1
  H  H97  1  0.97550000  0.20420000  0.34180000  1
  H  H98  1  0.92260000  0.43440000  0.11590000  1
  H  H99  1  0.94850000  0.57890000  0.98480000  1
  H  H100  1  0.51140000  0.63970000  0.95140000  1
  H  H101  1  0.96370000  0.01520000  0.59410000  1
  H  H102  1  0.05160000  0.18490000  0.44930000  1
  H  H103  1  0.81510000  0.14760000  0.51150000  1
  H  H104  1  0.87170000  0.31170000  0.36030000  1
  H  H105  1  0.39770000  0.44930000  0.26440000  1
  H  H106  1  0.56000000  0.04860000  0.68830000  1
  H  H107  1  0.51180000  0.31850000  0.43440000  1
  H  H108  1  0.33250000  0.63610000  0.14760000  1
  H  H109  1  0.66130000  0.58510000  0.19910000  1
  H  H110  1  0.00420000  0.55190000  0.23630000  1
  H  H111  1  0.19330000  0.11590000  0.68150000  1
  H  H112  1  0.53780000  0.19910000  0.61400000  1
  H  H113  1  0.36960000  0.40590000  0.42110000  1
  H  H114  1  0.54770000  0.31560000  0.55190000  1
  H  H115  1  0.69640000  0.51150000  0.36390000  1
  H  H116  1  0.13330000  0.73560000  0.18490000  1
  H  H117  1  0.23210000  0.23630000  0.68440000  1
  H  H118  1  0.77130000  0.13760000  0.79580000  1
  H  H119  1  0.92380000  0.38600000  0.58510000  1
  N  N120  1  0.67840000  0.54563000  0.47317000  1
  N  N121  1  0.11296000  0.64123000  0.52585000  1
  N  N122  1  0.47173000  0.88462000  0.35877000  1
  N  N123  1  0.13277000  0.92754000  0.45437000  1
  N  N124  1  0.79477000  0.47317000  0.92754000  1
  N  N125  1  0.41289000  0.52585000  0.88462000  1
  N  N126  1  0.58711000  0.47415000  0.11538000  1
  N  N127  1  0.20523000  0.52683000  0.07246000  1
  N  N128  1  0.86723000  0.07246000  0.54563000  1
  N  N129  1  0.52827000  0.11538000  0.64123000  1
  N  N130  1  0.88704000  0.35877000  0.47415000  1
  N  N131  1  0.32160000  0.45437000  0.52683000  1
  O  O132  1  0.11052000  0.34114000  0.66302000  1
  O  O133  1  0.44750000  0.33698000  0.67812000  1
  O  O134  1  0.23062000  0.67812000  0.34114000  1
  O  O135  1  0.76938000  0.32188000  0.65886000  1
  O  O136  1  0.55250000  0.66302000  0.32188000  1
  O  O137  1  0.88948000  0.65886000  0.33698000  1
