# generated using pymatgen
data_Cd3H12(C9O4)4
_symmetry_space_group_name_H-M   'P 1'
_cell_length_a   9.89900000
_cell_length_b   10.36200000
_cell_length_c   13.18000000
_cell_angle_alpha   68.87000000
_cell_angle_beta   70.65000000
_cell_angle_gamma   80.77000000
_symmetry_Int_Tables_number   1
_chemical_formula_structural   Cd3H12(C9O4)4
_chemical_formula_sum   'Cd3 H12 C36 O16'
_cell_volume   1188.50018449
_cell_formula_units_Z   1
loop_
 _symmetry_equiv_pos_site_id
 _symmetry_equiv_pos_as_xyz
  1  'x, y, z'
loop_
 _atom_site_type_symbol
 _atom_site_label
 _atom_site_symmetry_multiplicity
 _atom_site_fract_x
 _atom_site_fract_y
 _atom_site_fract_z
 _atom_site_occupancy
  Cd  Cd0  1  0.00000000  0.00000000  0.00000000  1
  Cd  Cd1  1  0.01405000  0.30815000  0.76365000  1
  Cd  Cd2  1  0.98595000  0.69185000  0.23635000  1
  H  H3  1  0.01980000  0.76550000  0.77000000  1
  H  H4  1  0.16680000  0.73550000  0.45520000  1
  H  H5  1  0.18810000  0.09190000  0.50280000  1
  H  H6  1  0.18820000  0.13790000  0.08140000  1
  H  H7  1  0.41770000  0.90640000  0.88500000  1
  H  H8  1  0.47630000  0.72790000  0.19440000  1
  H  H9  1  0.52370000  0.27210000  0.80560000  1
  H  H10  1  0.58230000  0.09360000  0.11500000  1
  H  H11  1  0.81180000  0.86210000  0.91860000  1
  H  H12  1  0.81190000  0.90810000  0.49720000  1
  H  H13  1  0.83320000  0.26450000  0.54480000  1
  H  H14  1  0.98020000  0.23450000  0.23000000  1
  C  C15  1  0.05070000  0.57860000  0.66980000  1
  C  C16  1  0.06270000  0.80550000  0.69220000  1
  C  C17  1  0.07560000  0.02710000  0.72640000  1
  C  C18  1  0.08720000  0.72810000  0.62000000  1
  C  C19  1  0.10210000  0.94200000  0.64840000  1
  C  C20  1  0.15090000  0.78710000  0.50340000  1
  C  C21  1  0.16380000  0.99970000  0.53260000  1
  C  C22  1  0.19070000  0.92440000  0.45940000  1
  C  C23  1  0.24390000  0.24730000  0.85850000  1
  C  C24  1  0.25870000  0.98670000  0.33930000  1
  C  C25  1  0.26610000  0.79190000  0.09810000  1
  C  C26  1  0.28650000  0.14830000  0.04920000  1
  C  C27  1  0.31590000  0.04090000  0.23950000  1
  C  C28  1  0.34280000  0.20660000  0.93240000  1
  C  C29  1  0.37600000  0.10500000  0.11880000  1
  C  C30  1  0.42220000  0.81330000  0.04790000  1
  C  C31  1  0.47860000  0.87650000  0.93050000  1
  C  C32  1  0.48710000  0.22900000  0.88380000  1
  C  C33  1  0.51290000  0.77100000  0.11620000  1
  C  C34  1  0.52140000  0.12350000  0.06950000  1
  C  C35  1  0.57780000  0.18670000  0.95210000  1
  C  C36  1  0.62400000  0.89500000  0.88120000  1
  C  C37  1  0.65720000  0.79340000  0.06760000  1
  C  C38  1  0.68410000  0.95910000  0.76050000  1
  C  C39  1  0.71350000  0.85170000  0.95080000  1
  C  C40  1  0.73390000  0.20810000  0.90190000  1
  C  C41  1  0.74130000  0.01330000  0.66070000  1
  C  C42  1  0.75610000  0.75270000  0.14150000  1
  C  C43  1  0.80930000  0.07560000  0.54060000  1
  C  C44  1  0.83620000  0.00030000  0.46740000  1
  C  C45  1  0.84910000  0.21290000  0.49660000  1
  C  C46  1  0.89790000  0.05800000  0.35160000  1
  C  C47  1  0.91280000  0.27190000  0.38000000  1
  C  C48  1  0.92440000  0.97290000  0.27360000  1
  C  C49  1  0.93730000  0.19450000  0.30780000  1
  C  C50  1  0.94930000  0.42140000  0.33020000  1
  O  O51  1  0.00810000  0.47140000  0.22510000  1
  O  O52  1  0.04490000  0.96380000  0.83180000  1
  O  O53  1  0.07780000  0.50700000  0.60580000  1
  O  O54  1  0.08760000  0.15370000  0.67740000  1
  O  O55  1  0.11640000  0.20490000  0.90580000  1
  O  O56  1  0.18710000  0.84900000  0.03490000  1
  O  O57  1  0.22050000  0.71520000  0.19950000  1
  O  O58  1  0.28500000  0.31960000  0.75810000  1
  O  O59  1  0.71500000  0.68040000  0.24190000  1
  O  O60  1  0.77950000  0.28480000  0.80050000  1
  O  O61  1  0.81290000  0.15100000  0.96510000  1
  O  O62  1  0.88360000  0.79510000  0.09420000  1
  O  O63  1  0.91240000  0.84630000  0.32260000  1
  O  O64  1  0.92220000  0.49300000  0.39420000  1
  O  O65  1  0.95510000  0.03620000  0.16820000  1
  O  O66  1  0.99190000  0.52860000  0.77490000  1
