# generated using pymatgen
data_CuH4C9(NO2)2
_symmetry_space_group_name_H-M   'P 1'
_cell_length_a   26.77777859
_cell_length_b   26.77780000
_cell_length_c   26.77780000
_cell_angle_alpha   90.35210000
_cell_angle_beta   119.79687344
_cell_angle_gamma   119.79697344
_symmetry_Int_Tables_number   1
_chemical_formula_structural   CuH4C9(NO2)2
_chemical_formula_sum   'Cu24 H96 C216 N48 O96'
_cell_volume   13618.56917405
_cell_formula_units_Z   24
loop_
 _symmetry_equiv_pos_site_id
 _symmetry_equiv_pos_as_xyz
  1  'x, y, z'
loop_
 _atom_site_type_symbol
 _atom_site_label
 _atom_site_symmetry_multiplicity
 _atom_site_fract_x
 _atom_site_fract_y
 _atom_site_fract_z
 _atom_site_occupancy
  Cu  Cu0  1  0.06522000  0.53176000  0.14126000  1
  Cu  Cu1  1  0.45373000  0.89166000  0.56207000  1
  Cu  Cu2  1  0.39050000  0.46654000  0.53176000  1
  Cu  Cu3  1  0.05004000  0.52689000  0.23159000  1
  Cu  Cu4  1  0.34218000  0.79472000  0.54746000  1
  Cu  Cu5  1  0.29530000  0.47685000  0.52689000  1
  Cu  Cu6  1  0.67041000  0.56207000  0.10834000  1
  Cu  Cu7  1  0.75274000  0.54746000  0.20528000  1
  Cu  Cu8  1  0.60950000  0.14126000  0.07604000  1
  Cu  Cu9  1  0.06522000  0.92396000  0.53346000  1
  Cu  Cu10  1  0.05004000  0.81845000  0.52315000  1
  Cu  Cu11  1  0.70470000  0.23159000  0.18155000  1
  Cu  Cu12  1  0.29530000  0.76841000  0.81845000  1
  Cu  Cu13  1  0.94996000  0.18155000  0.47685000  1
  Cu  Cu14  1  0.93478000  0.07604000  0.46654000  1
  Cu  Cu15  1  0.39050000  0.85874000  0.92396000  1
  Cu  Cu16  1  0.24726000  0.45254000  0.79472000  1
  Cu  Cu17  1  0.32959000  0.43793000  0.89166000  1
  Cu  Cu18  1  0.70470000  0.52315000  0.47311000  1
  Cu  Cu19  1  0.65782000  0.20528000  0.45254000  1
  Cu  Cu20  1  0.94996000  0.47311000  0.76841000  1
  Cu  Cu21  1  0.60950000  0.53346000  0.46824000  1
  Cu  Cu22  1  0.54627000  0.10834000  0.43793000  1
  Cu  Cu23  1  0.93478000  0.46824000  0.85874000  1
  H  H24  1  0.62480000  0.13560000  0.62720000  1
  H  H25  1  0.56300000  0.81210000  0.57070000  1
  H  H26  1  0.78150000  0.51250000  0.79360000  1
  H  H27  1  0.76990000  0.26950000  0.79020000  1
  H  H28  1  0.33360000  0.45920000  0.35480000  1
  H  H29  1  0.53700000  0.65040000  0.56100000  1
  H  H30  1  0.36500000  0.26750000  0.42470000  1
  H  H31  1  0.63770000  0.52060000  0.71190000  1
  H  H32  1  0.62720000  0.11480000  0.70780000  1
  H  H33  1  0.84280000  0.57530000  0.94030000  1
  H  H34  1  0.91060000  0.56100000  0.02400000  1
  H  H35  1  0.37280000  0.08060000  0.48760000  1
  H  H36  1  0.80870000  0.28810000  0.92580000  1
  H  H37  1  0.89560000  0.35480000  0.02120000  1
  H  H38  1  0.23090000  0.69940000  0.35770000  1
  H  H39  1  0.37520000  0.00240000  0.51080000  1
  H  H40  1  0.19050000  0.48040000  0.34090000  1
  H  H41  1  0.40150000  0.67170000  0.56640000  1
  H  H42  1  0.56300000  0.99230000  0.75090000  1
  H  H43  1  0.28110000  0.26900000  0.48750000  1
  H  H44  1  0.52070000  0.50040000  0.73050000  1
  H  H45  1  0.75860000  0.57070000  0.00770000  1
  H  H46  1  0.63500000  0.05970000  0.90250000  1
  H  H47  1  0.71890000  0.20640000  0.98790000  1
  H  H48  1  0.23010000  0.02030000  0.49960000  1
  H  H49  1  0.89470000  0.56640000  0.16490000  1
  H  H50  1  0.19130000  0.11710000  0.47940000  1
  H  H51  1  0.86050000  0.34090000  0.15040000  1
  H  H52  1  0.59300000  0.51240000  0.88520000  1
  H  H53  1  0.23090000  0.87320000  0.53150000  1
  H  H54  1  0.40150000  0.83510000  0.72980000  1
  H  H55  1  0.13950000  0.28990000  0.48040000  1
  H  H56  1  0.53700000  0.97600000  0.88660000  1
  H  H57  1  0.10440000  0.12560000  0.45920000  1
  H  H58  1  0.34170000  0.46850000  0.69940000  1
  H  H59  1  0.49160000  0.48920000  0.86440000  1
  H  H60  1  0.84280000  0.90250000  0.26750000  1
  H  H61  1  0.75860000  0.75090000  0.18790000  1
  H  H62  1  0.89470000  0.72980000  0.32830000  1
  H  H63  1  0.91060000  0.88660000  0.34960000  1
  H  H64  1  0.66640000  0.02120000  0.12560000  1
  H  H65  1  0.65830000  0.35770000  0.12680000  1
  H  H66  1  0.63770000  0.92580000  0.11710000  1
  H  H67  1  0.80950000  0.15040000  0.28990000  1
  H  H68  1  0.78150000  0.98790000  0.26900000  1
  H  H69  1  0.59300000  0.70780000  0.08060000  1
  H  H70  1  0.50840000  0.37280000  0.99760000  1
  H  H71  1  0.52070000  0.79020000  0.02030000  1
  H  H72  1  0.47930000  0.20980000  0.97970000  1
  H  H73  1  0.49160000  0.62720000  0.00240000  1
  H  H74  1  0.40700000  0.29220000  0.91940000  1
  H  H75  1  0.21850000  0.01210000  0.73100000  1
  H  H76  1  0.19050000  0.84960000  0.71010000  1
  H  H77  1  0.36230000  0.07420000  0.88290000  1
  H  H78  1  0.34170000  0.64230000  0.87320000  1
  H  H79  1  0.33360000  0.97880000  0.87440000  1
  H  H80  1  0.08940000  0.11340000  0.65040000  1
  H  H81  1  0.10530000  0.27020000  0.67170000  1
  H  H82  1  0.24140000  0.24910000  0.81210000  1
  H  H83  1  0.15720000  0.09750000  0.73250000  1
  H  H84  1  0.50840000  0.51080000  0.13560000  1
  H  H85  1  0.65830000  0.53150000  0.30060000  1
  H  H86  1  0.89560000  0.87440000  0.54080000  1
  H  H87  1  0.46300000  0.02400000  0.11340000  1
  H  H88  1  0.86050000  0.71010000  0.51960000  1
  H  H89  1  0.59850000  0.16490000  0.27020000  1
  H  H90  1  0.76910000  0.12680000  0.46850000  1
  H  H91  1  0.40700000  0.48760000  0.11480000  1
  H  H92  1  0.13950000  0.65910000  0.84960000  1
  H  H93  1  0.80870000  0.88290000  0.52060000  1
  H  H94  1  0.10530000  0.43360000  0.83510000  1
  H  H95  1  0.76990000  0.97970000  0.50040000  1
  H  H96  1  0.28110000  0.79360000  0.01210000  1
  H  H97  1  0.36500000  0.94030000  0.09750000  1
  H  H98  1  0.24140000  0.42930000  0.99230000  1
  H  H99  1  0.47930000  0.49960000  0.26950000  1
  H  H100  1  0.71890000  0.73100000  0.51250000  1
  H  H101  1  0.43700000  0.00770000  0.24910000  1
  H  H102  1  0.59850000  0.32830000  0.43360000  1
  H  H103  1  0.80950000  0.51960000  0.65910000  1
  H  H104  1  0.62480000  0.99760000  0.48920000  1
  H  H105  1  0.76910000  0.30060000  0.64230000  1
  H  H106  1  0.10440000  0.64520000  0.97880000  1
  H  H107  1  0.19130000  0.71190000  0.07420000  1
  H  H108  1  0.62720000  0.91940000  0.51240000  1
  H  H109  1  0.08940000  0.43900000  0.97600000  1
  H  H110  1  0.15720000  0.42470000  0.05970000  1
  H  H111  1  0.37280000  0.88520000  0.29220000  1
  H  H112  1  0.36230000  0.47940000  0.28810000  1
  H  H113  1  0.63500000  0.73250000  0.57530000  1
  H  H114  1  0.46300000  0.34960000  0.43900000  1
  H  H115  1  0.66640000  0.54080000  0.64520000  1
  H  H116  1  0.23010000  0.73050000  0.20980000  1
  H  H117  1  0.21850000  0.48750000  0.20640000  1
  H  H118  1  0.43700000  0.18790000  0.42930000  1
  H  H119  1  0.37520000  0.86440000  0.37280000  1
  C  C120  1  0.24941000  0.74441000  0.25120000  1
  C  C121  1  0.55892000  0.73453000  0.56421000  1
  C  C122  1  0.71760000  0.52639000  0.72299000  1
  C  C123  1  0.33653000  0.82420000  0.34887000  1
  C  C124  1  0.23039000  0.48310000  0.24429000  1
  C  C125  1  0.69274000  0.19572000  0.71318000  1
  C  C126  1  0.53771000  0.77158000  0.56827000  1
  C  C127  1  0.29922000  0.46633000  0.33315000  1
  C  C128  1  0.52201000  0.67483000  0.56242000  1
  C  C129  1  0.22035000  0.70524000  0.27725000  1
  C  C130  1  0.30908000  0.78529000  0.37529000  1
  C  C131  1  0.19574000  0.48615000  0.26873000  1
  C  C132  1  0.15981000  0.64057000  0.24124000  1
  C  C133  1  0.25017000  0.72547000  0.34006000  1
  C  C134  1  0.47872000  0.74780000  0.56866000  1
  C  C135  1  0.26544000  0.46968000  0.35720000  1
  C  C136  1  0.14284000  0.50037000  0.23567000  1
  C  C137  1  0.46290000  0.65115000  0.56259000  1
  C  C138  1  0.34130000  0.80600000  0.44176000  1
  C  C139  1  0.34640000  0.19940000  0.45100000  1
  C  C140  1  0.68680000  0.53194000  0.79574000  1
  C  C141  1  0.21371000  0.47893000  0.32478000  1
  C  C142  1  0.67650000  0.15334000  0.79204000  1
  C  C143  1  0.45226000  0.78605000  0.56865000  1
  C  C144  1  0.44101000  0.68744000  0.56595000  1
  C  C145  1  0.28898000  0.46601000  0.41977000  1
  C  C146  1  0.42114000  0.58564000  0.55538000  1
  C  C147  1  0.74840000  0.54900000  0.89540000  1
  C  C148  1  0.88759000  0.56242000  0.04041000  1
  C  C149  1  0.32350000  0.11554000  0.47684000  1
  C  C150  1  0.73620000  0.20426000  0.89106000  1
  C  C151  1  0.96974000  0.55538000  0.13424000  1
  C  C152  1  0.86682000  0.33315000  0.03393000  1
  C  C153  1  0.82968000  0.56421000  0.00529000  1
  C  C154  1  0.33653000  0.98766000  0.51233000  1
  C  C155  1  0.95376000  0.41977000  0.13079000  1
  C  C156  1  0.91144000  0.56259000  0.09969000  1
  C  C157  1  0.80340000  0.27701000  0.99461000  1
  C  C158  1  0.34130000  0.89954000  0.53530000  1
  C  C159  1  0.30726000  0.02044000  0.50298000  1
  C  C160  1  0.65360000  0.10460000  0.85300000  1
  C  C161  1  0.88752000  0.35720000  0.09176000  1
  C  C162  1  0.26380000  0.15486000  0.46806000  1
  C  C163  1  0.63870000  0.52316000  0.84666000  1
  C  C164  1  0.45226000  0.88361000  0.66621000  1
  C  C165  1  0.30908000  0.93379000  0.52379000  1
  C  C166  1  0.53771000  0.96944000  0.76613000  1
  C  C167  1  0.79669000  0.56827000  0.03056000  1
  C  C168  1  0.26470000  0.35753000  0.50037000  1
  C  C169  1  0.39933000  0.48076000  0.64057000  1
  C  C170  1  0.23881000  0.25271000  0.48310000  1
  C  C171  1  0.87851000  0.56595000  0.12494000  1
  C  C172  1  0.49321000  0.49500000  0.74441000  1
  C  C173  1  0.47872000  0.91006000  0.73092000  1
  C  C174  1  0.76119000  0.24429000  0.01390000  1
  C  C175  1  0.24941000  0.99821000  0.50500000  1
  C  C176  1  0.84585000  0.32478000  0.11107000  1
  C  C177  1  0.55892000  0.99471000  0.82439000  1
  C  C178  1  0.21742000  0.29041000  0.48615000  1
  C  C179  1  0.82086000  0.56866000  0.08994000  1
  C  C180  1  0.25017000  0.91011000  0.52470000  1
  C  C181  1  0.19660000  0.19121000  0.47361000  1
  C  C182  1  0.42799000  0.48489000  0.70524000  1
  C  C183  1  0.51746000  0.49702000  0.80428000  1
  C  C184  1  0.78258000  0.26873000  0.07299000  1
  C  C185  1  0.22035000  0.94310000  0.51511000  1
  C  C186  1  0.44101000  0.87506000  0.75357000  1
  C  C187  1  0.15415000  0.26522000  0.47893000  1
  C  C188  1  0.52201000  0.95959000  0.84718000  1
  C  C189  1  0.13318000  0.16711000  0.46633000  1
  C  C190  1  0.78260000  0.56865000  0.11639000  1
  C  C191  1  0.38541000  0.47530000  0.72547000  1
  C  C192  1  0.46290000  0.90031000  0.81175000  1
  C  C193  1  0.47533000  0.48767000  0.82420000  1
  C  C194  1  0.11248000  0.20424000  0.46968000  1
  C  C195  1  0.73530000  0.23567000  0.09283000  1
  C  C196  1  0.15981000  0.91857000  0.51924000  1
  C  C197  1  0.41000000  0.47621000  0.78529000  1
  C  C198  1  0.42114000  0.86576000  0.83550000  1
  C  C199  1  0.04624000  0.17703000  0.46601000  1
  C  C200  1  0.82086000  0.73092000  0.25220000  1
  C  C201  1  0.78260000  0.66621000  0.21395000  1
  C  C202  1  0.79669000  0.76613000  0.22842000  1
  C  C203  1  0.87851000  0.75357000  0.31256000  1
  C  C204  1  0.82968000  0.82439000  0.26547000  1
  C  C205  1  0.91144000  0.81175000  0.34885000  1
  C  C206  1  0.88759000  0.84718000  0.32517000  1
  C  C207  1  0.36424000  0.46470000  0.80600000  1
  C  C208  1  0.96974000  0.83550000  0.41436000  1
  C  C209  1  0.74840000  0.85300000  0.19940000  1
  C  C210  1  0.63576000  0.44176000  0.10046000  1
  C  C211  1  0.71102000  0.13079000  0.17703000  1
  C  C212  1  0.70078000  0.03393000  0.16711000  1
  C  C213  1  0.68680000  0.89106000  0.15486000  1
  C  C214  1  0.73456000  0.09176000  0.20424000  1
  C  C215  1  0.71760000  0.99461000  0.19121000  1
  C  C216  1  0.61459000  0.34006000  0.08989000  1
  C  C217  1  0.59000000  0.37529000  0.06621000  1
  C  C218  1  0.63870000  0.79204000  0.11554000  1
  C  C219  1  0.78629000  0.11107000  0.26522000  1
  C  C220  1  0.60067000  0.24124000  0.08143000  1
  C  C221  1  0.76961000  0.01390000  0.25271000  1
  C  C222  1  0.57201000  0.27725000  0.05690000  1
  C  C223  1  0.80426000  0.07299000  0.29041000  1
  C  C224  1  0.52467000  0.34887000  0.01234000  1
  C  C225  1  0.50679000  0.25120000  0.00179000  1
  C  C226  1  0.48254000  0.28682000  0.97956000  1
  C  C227  1  0.14284000  0.90717000  0.64247000  1
  C  C228  1  0.85716000  0.09283000  0.35753000  1
  C  C229  1  0.51746000  0.71318000  0.02044000  1
  C  C230  1  0.49321000  0.74880000  0.99821000  1
  C  C231  1  0.47533000  0.65113000  0.98766000  1
  C  C232  1  0.19574000  0.92701000  0.70959000  1
  C  C233  1  0.42799000  0.72275000  0.94310000  1
  C  C234  1  0.23039000  0.98610000  0.74729000  1
  C  C235  1  0.39933000  0.75876000  0.91857000  1
  C  C236  1  0.21371000  0.88893000  0.73478000  1
  C  C237  1  0.36130000  0.20796000  0.88446000  1
  C  C238  1  0.41000000  0.62471000  0.93379000  1
  C  C239  1  0.38541000  0.65994000  0.91011000  1
  C  C240  1  0.28240000  0.00539000  0.80879000  1
  C  C241  1  0.26544000  0.90824000  0.79576000  1
  C  C242  1  0.31320000  0.10894000  0.84514000  1
  C  C243  1  0.29922000  0.96607000  0.83289000  1
  C  C244  1  0.28898000  0.86921000  0.82297000  1
  C  C245  1  0.36424000  0.55824000  0.89954000  1
  C  C246  1  0.25160000  0.14700000  0.80060000  1
  C  C247  1  0.03026000  0.16450000  0.58564000  1
  C  C248  1  0.63576000  0.53530000  0.19400000  1
  C  C249  1  0.11241000  0.15282000  0.67483000  1
  C  C250  1  0.08856000  0.18825000  0.65115000  1
  C  C251  1  0.17032000  0.17561000  0.73453000  1
  C  C252  1  0.12149000  0.24643000  0.68744000  1
  C  C253  1  0.20331000  0.23387000  0.77158000  1
  C  C254  1  0.21740000  0.33379000  0.78605000  1
  C  C255  1  0.17914000  0.26908000  0.74780000  1
  C  C256  1  0.95376000  0.82297000  0.53399000  1
  C  C257  1  0.57886000  0.13424000  0.16450000  1
  C  C258  1  0.59000000  0.52379000  0.21471000  1
  C  C259  1  0.84019000  0.08143000  0.48076000  1
  C  C260  1  0.26470000  0.76433000  0.90717000  1
  C  C261  1  0.88752000  0.79576000  0.53032000  1
  C  C262  1  0.52467000  0.51233000  0.17580000  1
  C  C263  1  0.53710000  0.09969000  0.18825000  1
  C  C264  1  0.61459000  0.52470000  0.27453000  1
  C  C265  1  0.21740000  0.43135000  0.88361000  1
  C  C266  1  0.86682000  0.83289000  0.53367000  1
  C  C267  1  0.47799000  0.04041000  0.15282000  1
  C  C268  1  0.84585000  0.73478000  0.52107000  1
  C  C269  1  0.55899000  0.12494000  0.24643000  1
  C  C270  1  0.77965000  0.05690000  0.48489000  1
  C  C271  1  0.21742000  0.73127000  0.92701000  1
  C  C272  1  0.48254000  0.50298000  0.19572000  1
  C  C273  1  0.57201000  0.51511000  0.29476000  1
  C  C274  1  0.80340000  0.80879000  0.52639000  1
  C  C275  1  0.74983000  0.08989000  0.47530000  1
  C  C276  1  0.17914000  0.43134000  0.91006000  1
  C  C277  1  0.78258000  0.70959000  0.51385000  1
  C  C278  1  0.44108000  0.00529000  0.17561000  1
  C  C279  1  0.15415000  0.67522000  0.88893000  1
  C  C280  1  0.75059000  0.00179000  0.49500000  1
  C  C281  1  0.23881000  0.75571000  0.98610000  1
  C  C282  1  0.52128000  0.08994000  0.26908000  1
  C  C283  1  0.50679000  0.50500000  0.25559000  1
  C  C284  1  0.12149000  0.43405000  0.87506000  1
  C  C285  1  0.76119000  0.74729000  0.51690000  1
  C  C286  1  0.60067000  0.51924000  0.35943000  1
  C  C287  1  0.73530000  0.64247000  0.49963000  1
  C  C288  1  0.20331000  0.43173000  0.96944000  1
  C  C289  1  0.46229000  0.03056000  0.23387000  1
  C  C290  1  0.69092000  0.06621000  0.47621000  1
  C  C291  1  0.54774000  0.11639000  0.33379000  1
  C  C292  1  0.36130000  0.47684000  0.15334000  1
  C  C293  1  0.73620000  0.84514000  0.53194000  1
  C  C294  1  0.11248000  0.64280000  0.90824000  1
  C  C295  1  0.34640000  0.89540000  0.14700000  1
  C  C296  1  0.69274000  0.97956000  0.49702000  1
  C  C297  1  0.65870000  0.10046000  0.46470000  1
  C  C298  1  0.19660000  0.72299000  0.00539000  1
  C  C299  1  0.08856000  0.43741000  0.90031000  1
  C  C300  1  0.04624000  0.58023000  0.86921000  1
  C  C301  1  0.66347000  0.01234000  0.48767000  1
  C  C302  1  0.17032000  0.43579000  0.99471000  1
  C  C303  1  0.13318000  0.66685000  0.96607000  1
  C  C304  1  0.03026000  0.44462000  0.86576000  1
  C  C305  1  0.26380000  0.79574000  0.10894000  1
  C  C306  1  0.67650000  0.88446000  0.52316000  1
  C  C307  1  0.11241000  0.43758000  0.95959000  1
  C  C308  1  0.25160000  0.45100000  0.10460000  1
  C  C309  1  0.57886000  0.41436000  0.44462000  1
  C  C310  1  0.71102000  0.53399000  0.58023000  1
  C  C311  1  0.55899000  0.31256000  0.43405000  1
  C  C312  1  0.54774000  0.21395000  0.43135000  1
  C  C313  1  0.32350000  0.84666000  0.20796000  1
  C  C314  1  0.78629000  0.52107000  0.67522000  1
  C  C315  1  0.31320000  0.46806000  0.20426000  1
  C  C316  1  0.65360000  0.80060000  0.54900000  1
  C  C317  1  0.65870000  0.19400000  0.55824000  1
  C  C318  1  0.53710000  0.34885000  0.43741000  1
  C  C319  1  0.85716000  0.49963000  0.76433000  1
  C  C320  1  0.73456000  0.53032000  0.64280000  1
  C  C321  1  0.52128000  0.25220000  0.43134000  1
  C  C322  1  0.74983000  0.27453000  0.65994000  1
  C  C323  1  0.84019000  0.35943000  0.75876000  1
  C  C324  1  0.80426000  0.51385000  0.73127000  1
  C  C325  1  0.69092000  0.21471000  0.62471000  1
  C  C326  1  0.77965000  0.29476000  0.72275000  1
  C  C327  1  0.47799000  0.32517000  0.43758000  1
  C  C328  1  0.70078000  0.53367000  0.66685000  1
  C  C329  1  0.46229000  0.22842000  0.43173000  1
  C  C330  1  0.30726000  0.80428000  0.28682000  1
  C  C331  1  0.76961000  0.51690000  0.75571000  1
  C  C332  1  0.66347000  0.17580000  0.65113000  1
  C  C333  1  0.28240000  0.47361000  0.27701000  1
  C  C334  1  0.44108000  0.26547000  0.43579000  1
  C  C335  1  0.75059000  0.25559000  0.74880000  1
  N  N336  1  0.38157000  0.24602000  0.43605000  1
  N  N337  1  0.67600000  0.52573000  0.74073000  1
  N  N338  1  0.66144000  0.15029000  0.73505000  1
  N  N339  1  0.74659000  0.54636000  0.84475000  1
  N  N340  1  0.36137000  0.15843000  0.46206000  1
  N  N341  1  0.72624000  0.20706000  0.83622000  1
  N  N342  1  0.80997000  0.56395000  0.94552000  1
  N  N343  1  0.78500000  0.25927000  0.93527000  1
  N  N344  1  0.33856000  0.07361000  0.48885000  1
  N  N345  1  0.29839000  0.20023000  0.45364000  1
  N  N346  1  0.63863000  0.10069000  0.79706000  1
  N  N347  1  0.62916000  0.51918000  0.79294000  1
  N  N348  1  0.70161000  0.15525000  0.90184000  1
  N  N349  1  0.69637000  0.53794000  0.89931000  1
  N  N350  1  0.27376000  0.10998000  0.48082000  1
  N  N351  1  0.61843000  0.05448000  0.86445000  1
  N  N352  1  0.21500000  0.15027000  0.47427000  1
  N  N353  1  0.58476000  0.51115000  0.84971000  1
  N  N354  1  0.80997000  0.86445000  0.24602000  1
  N  N355  1  0.74659000  0.90184000  0.20023000  1
  N  N356  1  0.69637000  0.79706000  0.15843000  1
  N  N357  1  0.67600000  0.93527000  0.15027000  1
  N  N358  1  0.62916000  0.83622000  0.10998000  1
  N  N359  1  0.58476000  0.73505000  0.07361000  1
  N  N360  1  0.41524000  0.26495000  0.92639000  1
  N  N361  1  0.37084000  0.16378000  0.89002000  1
  N  N362  1  0.32400000  0.06473000  0.84973000  1
  N  N363  1  0.30363000  0.20294000  0.84157000  1
  N  N364  1  0.25341000  0.09816000  0.79977000  1
  N  N365  1  0.19003000  0.13555000  0.75398000  1
  N  N366  1  0.41524000  0.48885000  0.15029000  1
  N  N367  1  0.78500000  0.84973000  0.52573000  1
  N  N368  1  0.38157000  0.94552000  0.13555000  1
  N  N369  1  0.72624000  0.89002000  0.51918000  1
  N  N370  1  0.30363000  0.46206000  0.10069000  1
  N  N371  1  0.29839000  0.84475000  0.09816000  1
  N  N372  1  0.37084000  0.48082000  0.20706000  1
  N  N373  1  0.36137000  0.89931000  0.20294000  1
  N  N374  1  0.70161000  0.79977000  0.54636000  1
  N  N375  1  0.66144000  0.92639000  0.51115000  1
  N  N376  1  0.21500000  0.74073000  0.06473000  1
  N  N377  1  0.19003000  0.43605000  0.05448000  1
  N  N378  1  0.27376000  0.79294000  0.16378000  1
  N  N379  1  0.63863000  0.84157000  0.53794000  1
  N  N380  1  0.25341000  0.45364000  0.15525000  1
  N  N381  1  0.33856000  0.84971000  0.26495000  1
  N  N382  1  0.32400000  0.47427000  0.25927000  1
  N  N383  1  0.61843000  0.75398000  0.56395000  1
  O  O384  1  0.13990000  0.61882000  0.18760000  1
  O  O385  1  0.13395000  0.51336000  0.18819000  1
  O  O386  1  0.40230000  0.85607000  0.47435000  1
  O  O387  1  0.48844000  0.84101000  0.57351000  1
  O  O388  1  0.44231000  0.55433000  0.54978000  1
  O  O389  1  0.33610000  0.45641000  0.44549000  1
  O  O390  1  0.99545000  0.54978000  0.10747000  1
  O  O391  1  0.98908000  0.44549000  0.10939000  1
  O  O392  1  0.13261000  0.61046000  0.26747000  1
  O  O393  1  0.40230000  0.92795000  0.54623000  1
  O  O394  1  0.11142000  0.49954000  0.25902000  1
  O  O395  1  0.30771000  0.77341000  0.46162000  1
  O  O396  1  0.48844000  0.91493000  0.64743000  1
  O  O397  1  0.39353000  0.75886000  0.56135000  1
  O  O398  1  0.26147000  0.47467000  0.44282000  1
  O  O399  1  0.36615000  0.56470000  0.55333000  1
  O  O400  1  0.43122000  0.47892000  0.61882000  1
  O  O401  1  0.32517000  0.37941000  0.51336000  1
  O  O402  1  0.98863000  0.55333000  0.18718000  1
  O  O403  1  0.96815000  0.44282000  0.18135000  1
  O  O404  1  0.30771000  0.84609000  0.53430000  1
  O  O405  1  0.39353000  0.83218000  0.63467000  1
  O  O406  1  0.24052000  0.38812000  0.49954000  1
  O  O407  1  0.34299000  0.47785000  0.61046000  1
  O  O408  1  0.73250000  0.57351000  0.08507000  1
  O  O409  1  0.80249000  0.56135000  0.16782000  1
  O  O410  1  0.67483000  0.18819000  0.05424000  1
  O  O411  1  0.13990000  0.95230000  0.52108000  1
  O  O412  1  0.75948000  0.25902000  0.14760000  1
  O  O413  1  0.13261000  0.86514000  0.52215000  1
  O  O414  1  0.73250000  0.64743000  0.15899000  1
  O  O415  1  0.36615000  0.81282000  0.80145000  1
  O  O416  1  0.80249000  0.63467000  0.24114000  1
  O  O417  1  0.03185000  0.21320000  0.47467000  1
  O  O418  1  0.01092000  0.12031000  0.45641000  1
  O  O419  1  0.44231000  0.89253000  0.88798000  1
  O  O420  1  0.98863000  0.80145000  0.43530000  1
  O  O421  1  0.99545000  0.88798000  0.44567000  1
  O  O422  1  0.61828000  0.47435000  0.07205000  1
  O  O423  1  0.66390000  0.10939000  0.12031000  1
  O  O424  1  0.31179000  0.46570000  0.77341000  1
  O  O425  1  0.68821000  0.46162000  0.15391000  1
  O  O426  1  0.38172000  0.45377000  0.85607000  1
  O  O427  1  0.73853000  0.18135000  0.21320000  1
  O  O428  1  0.65701000  0.26747000  0.13486000  1
  O  O429  1  0.56878000  0.18760000  0.04770000  1
  O  O430  1  0.13395000  0.94576000  0.62059000  1
  O  O431  1  0.88858000  0.14760000  0.38812000  1
  O  O432  1  0.11142000  0.85240000  0.61188000  1
  O  O433  1  0.86605000  0.05424000  0.37941000  1
  O  O434  1  0.43122000  0.81240000  0.95230000  1
  O  O435  1  0.34299000  0.73253000  0.86514000  1
  O  O436  1  0.26147000  0.81865000  0.78680000  1
  O  O437  1  0.61828000  0.54623000  0.14393000  1
  O  O438  1  0.31179000  0.53838000  0.84609000  1
  O  O439  1  0.68821000  0.53430000  0.22659000  1
  O  O440  1  0.33610000  0.89061000  0.87969000  1
  O  O441  1  0.38172000  0.52565000  0.92795000  1
  O  O442  1  0.00455000  0.11202000  0.55433000  1
  O  O443  1  0.01137000  0.19855000  0.56470000  1
  O  O444  1  0.55769000  0.10747000  0.11202000  1
  O  O445  1  0.98908000  0.87969000  0.54359000  1
  O  O446  1  0.96815000  0.78680000  0.52533000  1
  O  O447  1  0.19751000  0.36533000  0.75886000  1
  O  O448  1  0.63385000  0.18718000  0.19855000  1
  O  O449  1  0.26750000  0.35257000  0.84101000  1
  O  O450  1  0.86739000  0.13486000  0.47785000  1
  O  O451  1  0.24052000  0.74098000  0.85240000  1
  O  O452  1  0.86010000  0.04770000  0.47892000  1
  O  O453  1  0.32517000  0.81181000  0.94576000  1
  O  O454  1  0.19751000  0.43865000  0.83218000  1
  O  O455  1  0.26750000  0.42649000  0.91493000  1
  O  O456  1  0.65701000  0.52215000  0.38954000  1
  O  O457  1  0.75948000  0.61188000  0.50046000  1
  O  O458  1  0.60647000  0.16782000  0.36533000  1
  O  O459  1  0.69229000  0.15391000  0.46570000  1
  O  O460  1  0.03185000  0.55718000  0.81865000  1
  O  O461  1  0.01137000  0.44667000  0.81282000  1
  O  O462  1  0.67483000  0.62059000  0.48664000  1
  O  O463  1  0.56878000  0.52108000  0.38118000  1
  O  O464  1  0.63385000  0.43530000  0.44667000  1
  O  O465  1  0.73853000  0.52533000  0.55718000  1
  O  O466  1  0.60647000  0.24114000  0.43865000  1
  O  O467  1  0.51156000  0.08507000  0.35257000  1
  O  O468  1  0.69229000  0.22659000  0.53838000  1
  O  O469  1  0.88858000  0.50046000  0.74098000  1
  O  O470  1  0.59770000  0.07205000  0.45377000  1
  O  O471  1  0.86739000  0.38954000  0.73253000  1
  O  O472  1  0.01092000  0.55451000  0.89061000  1
  O  O473  1  0.00455000  0.45022000  0.89253000  1
  O  O474  1  0.66390000  0.54359000  0.55451000  1
  O  O475  1  0.55769000  0.44567000  0.45022000  1
  O  O476  1  0.51156000  0.15899000  0.42649000  1
  O  O477  1  0.59770000  0.14393000  0.52565000  1
  O  O478  1  0.86605000  0.48664000  0.81181000  1
  O  O479  1  0.86010000  0.38118000  0.81240000  1
