# generated using pymatgen
data_CoH8C13NO5
_symmetry_space_group_name_H-M   'P 1'
_cell_length_a   7.16680000
_cell_length_b   9.85240000
_cell_length_c   12.37219977
_cell_angle_alpha   88.71460198
_cell_angle_beta   73.16400345
_cell_angle_gamma   85.55790000
_symmetry_Int_Tables_number   1
_chemical_formula_structural   CoH8C13NO5
_chemical_formula_sum   'Co2 H16 C26 N2 O10'
_cell_volume   833.64690380
_cell_formula_units_Z   2
loop_
 _symmetry_equiv_pos_site_id
 _symmetry_equiv_pos_as_xyz
  1  'x, y, z'
loop_
 _atom_site_type_symbol
 _atom_site_label
 _atom_site_symmetry_multiplicity
 _atom_site_fract_x
 _atom_site_fract_y
 _atom_site_fract_z
 _atom_site_occupancy
  Co  Co0  1  0.50000000  0.50000000  0.50000000  1
  Co  Co1  1  1.00000000  0.50000000  0.50000000  1
  H  H2  1  0.45220000  0.85680000  0.63420000  1
  H  H3  1  0.47390000  0.08770000  0.63040000  1
  H  H4  1  0.59690000  0.30480000  0.71960000  1
  H  H5  1  0.68350000  0.69520000  0.71960000  1
  H  H6  1  0.50190000  0.30230000  0.91340000  1
  H  H7  1  0.08640000  0.85680000  0.36580000  1
  H  H8  1  0.10430000  0.08770000  0.36960000  1
  H  H9  1  0.58470000  0.69770000  0.91340000  1
  H  H10  1  0.41530000  0.30230000  0.08660000  1
  H  H11  1  0.89570000  0.91230000  0.63040000  1
  H  H12  1  0.91360000  0.14320000  0.63420000  1
  H  H13  1  0.49810000  0.69770000  0.08660000  1
  H  H14  1  0.31650000  0.30480000  0.28040000  1
  H  H15  1  0.40310000  0.69520000  0.28040000  1
  H  H16  1  0.52610000  0.91230000  0.36960000  1
  H  H17  1  0.54780000  0.14320000  0.36580000  1
  C  C18  1  0.64300000  0.94710000  0.36980000  1
  C  C19  1  0.65550000  0.08580000  0.36860000  1
  C  C20  1  0.78304000  0.70830000  0.38892000  1
  C  C21  1  0.80227000  0.85850000  0.37146000  1
  C  C22  1  0.82627000  0.14150000  0.37146000  1
  C  C23  1  0.82804000  0.29170000  0.38892000  1
  C  C24  1  0.97590000  0.91420000  0.36860000  1
  C  C25  1  0.59479000  0.38400000  0.75962000  1
  C  C26  1  0.98720000  0.05290000  0.36980000  1
  C  C27  1  0.64559000  0.61600000  0.75962000  1
  C  C28  1  0.53750000  0.38310000  0.87540000  1
  C  C29  1  0.58710000  0.61690000  0.87540000  1
  C  C30  1  0.53140000  0.50000000  0.93720000  1
  C  C31  1  0.46860000  0.50000000  0.06280000  1
  C  C32  1  0.41290000  0.38310000  0.12460000  1
  C  C33  1  0.46250000  0.61690000  0.12460000  1
  C  C34  1  0.35441000  0.38400000  0.24038000  1
  C  C35  1  0.01280000  0.94710000  0.63020000  1
  C  C36  1  0.40521000  0.61600000  0.24038000  1
  C  C37  1  0.02410000  0.08580000  0.63140000  1
  C  C38  1  0.17196000  0.70830000  0.61108000  1
  C  C39  1  0.17373000  0.85850000  0.62854000  1
  C  C40  1  0.19773000  0.14150000  0.62854000  1
  C  C41  1  0.21696000  0.29170000  0.61108000  1
  C  C42  1  0.34450000  0.91420000  0.63140000  1
  C  C43  1  0.35700000  0.05290000  0.63020000  1
  N  N44  1  0.64770000  0.50000000  0.70460000  1
  N  N45  1  0.35230000  0.50000000  0.29540000  1
  O  O46  1  0.61219000  0.67000000  0.41282000  1
  O  O47  1  0.68254000  0.36640000  0.38072000  1
  O  O48  1  0.70414000  0.50000000  0.59172000  1
  O  O49  1  0.93674000  0.63360000  0.38072000  1
  O  O50  1  0.97499000  0.33000000  0.41282000  1
  O  O51  1  0.02501000  0.67000000  0.58718000  1
  O  O52  1  0.06326000  0.36640000  0.61928000  1
  O  O53  1  0.29586000  0.50000000  0.40828000  1
  O  O54  1  0.31746000  0.63360000  0.61928000  1
  O  O55  1  0.38781000  0.33000000  0.58718000  1
