# generated using pymatgen
data_Be3P4(HO3)4
_symmetry_space_group_name_H-M   'P 1'
_cell_length_a   8.04720000
_cell_length_b   8.37508534
_cell_length_c   15.20326856
_cell_angle_alpha   78.80013482
_cell_angle_beta   74.65362837
_cell_angle_gamma   61.28683983
_symmetry_Int_Tables_number   1
_chemical_formula_structural   Be3P4(HO3)4
_chemical_formula_sum   'Be6 P8 H8 O24'
_cell_volume   863.87238794
_cell_formula_units_Z   2
loop_
 _symmetry_equiv_pos_site_id
 _symmetry_equiv_pos_as_xyz
  1  'x, y, z'
loop_
 _atom_site_type_symbol
 _atom_site_label
 _atom_site_symmetry_multiplicity
 _atom_site_fract_x
 _atom_site_fract_y
 _atom_site_fract_z
 _atom_site_occupancy
  Be  Be0  1  0.86590000  0.25000000  0.75000000  1
  Be  Be1  1  0.13410000  0.75000000  0.25000000  1
  Be  Be2  1  0.00650000  0.25180000  0.47140000  1
  Be  Be3  1  0.27030000  0.75180000  0.97140000  1
  Be  Be4  1  0.99350000  0.74820000  0.52860000  1
  Be  Be5  1  0.72970000  0.24820000  0.02860000  1
  H  H6  1  0.81200000  0.76840000  0.14560000  1
  H  H7  1  0.27400000  0.26840000  0.64560000  1
  H  H8  1  0.59700000  0.16960000  0.64840000  1
  H  H9  1  0.58500000  0.66960000  0.14840000  1
  H  H10  1  0.40300000  0.83040000  0.35160000  1
  H  H11  1  0.41500000  0.33040000  0.85160000  1
  H  H12  1  0.18800000  0.23160000  0.85440000  1
  H  H13  1  0.72600000  0.73160000  0.35440000  1
  O  O14  1  0.99730000  0.12786000  0.82434000  1
  O  O15  1  0.05050000  0.62786000  0.32434000  1
  O  O16  1  0.88375000  0.45202000  0.42348000  1
  O  O17  1  0.24075000  0.95202000  0.92348000  1
  O  O18  1  0.85249000  0.09529000  0.70613000  1
  O  O19  1  0.34609000  0.59529000  0.20613000  1
  O  O20  1  0.05758000  0.76142000  0.02302000  1
  O  O21  1  0.15798000  0.26142000  0.52302000  1
  O  O22  1  0.85414000  0.19100000  0.53872000  1
  O  O23  1  0.41614000  0.69100000  0.03872000  1
  O  O24  1  0.14196000  0.11141000  0.39187000  1
  O  O25  1  0.35476000  0.61141000  0.89187000  1
  O  O26  1  0.85804000  0.88859000  0.60813000  1
  O  O27  1  0.64524000  0.38859000  0.10813000  1
  O  O28  1  0.14586000  0.80900000  0.46128000  1
  O  O29  1  0.58386000  0.30900000  0.96128000  1
  O  O30  1  0.94242000  0.23858000  0.97698000  1
  O  O31  1  0.84202000  0.73858000  0.47698000  1
  O  O32  1  0.14751000  0.90471000  0.29387000  1
  O  O33  1  0.65391000  0.40471000  0.79387000  1
  O  O34  1  0.11625000  0.54798000  0.57652000  1
  O  O35  1  0.75925000  0.04798000  0.07652000  1
  O  O36  1  0.00270000  0.87214000  0.17566000  1
  O  O37  1  0.94950000  0.37214000  0.67566000  1
  P  P38  1  0.91005000  0.86332000  0.10376000  1
  P  P39  1  0.12287000  0.36332000  0.60376000  1
  P  P40  1  0.79832000  0.08309000  0.62141000  1
  P  P41  1  0.49718000  0.58309000  0.12141000  1
  P  P42  1  0.20168000  0.91691000  0.37859000  1
  P  P43  1  0.50282000  0.41691000  0.87859000  1
  P  P44  1  0.08995000  0.13668000  0.89624000  1
  P  P45  1  0.87713000  0.63668000  0.39624000  1
