# generated using pymatgen
data_FeH28C22(SN5)2
_symmetry_space_group_name_H-M   'P 1'
_cell_length_a   10.98600000
_cell_length_b   15.10940000
_cell_length_c   15.10944244
_cell_angle_alpha   114.32360975
_cell_angle_beta   104.02638037
_cell_angle_gamma   104.02600000
_symmetry_Int_Tables_number   1
_chemical_formula_structural   FeH28C22(SN5)2
_chemical_formula_sum   'Fe3 H84 C66 S6 N30'
_cell_volume   2044.44114658
_cell_formula_units_Z   3
loop_
 _symmetry_equiv_pos_site_id
 _symmetry_equiv_pos_as_xyz
  1  'x, y, z'
loop_
 _atom_site_type_symbol
 _atom_site_label
 _atom_site_symmetry_multiplicity
 _atom_site_fract_x
 _atom_site_fract_y
 _atom_site_fract_z
 _atom_site_occupancy
  Fe  Fe0  1  0.50000000  0.50000000  0.50000000  1
  Fe  Fe1  1  1.00000000  0.50000000  1.00000000  1
  Fe  Fe2  1  0.00000000  0.00000000  0.50000000  1
  H  H3  1  0.86950000  0.23200000  0.86050000  1
  H  H4  1  0.36970000  0.98030000  0.35170000  1
  H  H5  1  0.26870000  0.95340000  0.24240000  1
  H  H6  1  0.56400000  0.77140000  0.52970000  1
  H  H7  1  0.45820000  0.69000000  0.41430000  1
  H  H8  1  0.56270000  0.20810000  0.51810000  1
  H  H9  1  0.76700000  0.53200000  0.65520000  1
  H  H10  1  0.38810000  0.59110000  0.26030000  1
  H  H11  1  0.36250000  0.37150000  0.23200000  1
  H  H12  1  0.27950000  0.51970000  0.14450000  1
  H  H13  1  0.73720000  0.16600000  0.58140000  1
  H  H14  1  0.42330000  0.97710000  0.26370000  1
  H  H15  1  0.87220000  0.26030000  0.66920000  1
  H  H16  1  0.96570000  0.52970000  0.75830000  1
  H  H17  1  0.52260000  0.29200000  0.31260000  1
  H  H18  1  0.21000000  0.68740000  0.97940000  1
  H  H19  1  0.55460000  0.20070000  0.32380000  1
  H  H20  1  0.95610000  0.41430000  0.72430000  1
  H  H21  1  0.76500000  0.87680000  0.53200000  1
  H  H22  1  0.11180000  0.34480000  0.87680000  1
  H  H23  1  0.86500000  0.14450000  0.62480000  1
  H  H24  1  0.42880000  0.58460000  0.16600000  1
  H  H25  1  0.31530000  0.28900000  0.04660000  1
  H  H26  1  0.75980000  0.62480000  0.48030000  1
  H  H27  1  0.02630000  0.75760000  0.71100000  1
  H  H28  1  0.62100000  0.97620000  0.26910000  1
  H  H29  1  0.23080000  0.67620000  0.87690000  1
  H  H30  1  0.04460000  0.48190000  0.69000000  1
  H  H31  1  0.64810000  0.26910000  0.29290000  1
  H  H32  1  0.99100000  0.86050000  0.62850000  1
  H  H33  1  0.38940000  0.37140000  0.01970000  1
  H  H34  1  0.35520000  0.70710000  0.97620000  1
  H  H35  1  0.79700000  0.66920000  0.40890000  1
  H  H36  1  0.01800000  0.64830000  0.62860000  1
  H  H37  1  0.44620000  0.28660000  0.02290000  1
  H  H38  1  0.84420000  0.58140000  0.41540000  1
  H  H39  1  0.20740000  0.24170000  0.77140000  1
  H  H40  1  0.64540000  0.69000000  0.20810000  1
  H  H41  1  0.64610000  0.87690000  0.20070000  1
  H  H42  1  0.15960000  0.73630000  0.71340000  1
  H  H43  1  0.76820000  0.72430000  0.31000000  1
  H  H44  1  0.76940000  0.97940000  0.29200000  1
  H  H45  1  0.23060000  0.02060000  0.70800000  1
  H  H46  1  0.23180000  0.27570000  0.69000000  1
  H  H47  1  0.84040000  0.26370000  0.28660000  1
  H  H48  1  0.35390000  0.12310000  0.79930000  1
  H  H49  1  0.35460000  0.31000000  0.79190000  1
  H  H50  1  0.79260000  0.75830000  0.22860000  1
  H  H51  1  0.15580000  0.41860000  0.58460000  1
  H  H52  1  0.55380000  0.71340000  0.97710000  1
  H  H53  1  0.98200000  0.35170000  0.37140000  1
  H  H54  1  0.20300000  0.33080000  0.59110000  1
  H  H55  1  0.64480000  0.29290000  0.02380000  1
  H  H56  1  0.61060000  0.62860000  0.98030000  1
  H  H57  1  0.00900000  0.13950000  0.37150000  1
  H  H58  1  0.35190000  0.73090000  0.70710000  1
  H  H59  1  0.95540000  0.51810000  0.31000000  1
  H  H60  1  0.76920000  0.32380000  0.12310000  1
  H  H61  1  0.37900000  0.02380000  0.73090000  1
  H  H62  1  0.97370000  0.24240000  0.28900000  1
  H  H63  1  0.24020000  0.37520000  0.51970000  1
  H  H64  1  0.68470000  0.71100000  0.95340000  1
  H  H65  1  0.57120000  0.41540000  0.83400000  1
  H  H66  1  0.13500000  0.85550000  0.37520000  1
  H  H67  1  0.88820000  0.65520000  0.12320000  1
  H  H68  1  0.23500000  0.12320000  0.46800000  1
  H  H69  1  0.04390000  0.58570000  0.27570000  1
  H  H70  1  0.44540000  0.79930000  0.67620000  1
  H  H71  1  0.79000000  0.31260000  0.02060000  1
  H  H72  1  0.47740000  0.70800000  0.68740000  1
  H  H73  1  0.03430000  0.47030000  0.24170000  1
  H  H74  1  0.12780000  0.73970000  0.33080000  1
  H  H75  1  0.57670000  0.02290000  0.73630000  1
  H  H76  1  0.26280000  0.83400000  0.41860000  1
  H  H77  1  0.72050000  0.48030000  0.85550000  1
  H  H78  1  0.63750000  0.62850000  0.76800000  1
  H  H79  1  0.61190000  0.40890000  0.73970000  1
  H  H80  1  0.23300000  0.46800000  0.34480000  1
  H  H81  1  0.43730000  0.79190000  0.48190000  1
  H  H82  1  0.54180000  0.31000000  0.58570000  1
  H  H83  1  0.43600000  0.22860000  0.47030000  1
  H  H84  1  0.73130000  0.04660000  0.75760000  1
  H  H85  1  0.63030000  0.01970000  0.64830000  1
  H  H86  1  0.13050000  0.76800000  0.13950000  1
  C  C87  1  0.92664000  0.65118000  0.91554000  1
  C  C88  1  0.50360000  0.76340000  0.46660000  1
  C  C89  1  0.34790000  0.94570000  0.27710000  1
  C  C90  1  0.72454000  0.73564000  0.65118000  1
  C  C91  1  0.32020000  0.83220000  0.23640000  1
  C  C92  1  0.31930000  0.67440000  0.19980000  1
  C  C93  1  0.40253000  0.78265000  0.26024000  1
  C  C94  1  0.58230000  0.82000000  0.42650000  1
  C  C95  1  0.35730000  0.58460000  0.19210000  1
  C  C96  1  0.54180000  0.83211000  0.33969000  1
  C  C97  1  0.83480000  0.19210000  0.60750000  1
  C  C98  1  0.68110000  0.34470000  0.44740000  1
  C  C99  1  0.84420000  0.42650000  0.60650000  1
  C  C100  1  0.59390000  0.27010000  0.33420000  1
  C  C101  1  0.96300000  0.46660000  0.70320000  1
  C  C102  1  0.01110000  0.08446000  0.73564000  1
  C  C103  1  0.79789000  0.33969000  0.50758000  1
  C  C104  1  0.66360000  0.89730000  0.34470000  1
  C  C105  1  0.64490000  0.52540000  0.32560000  1
  C  C106  1  0.48800000  0.40420000  0.16780000  1
  C  C107  1  0.25970000  0.66580000  0.93590000  1
  C  C108  1  0.23370000  0.55260000  0.89730000  1
  C  C109  1  0.40220000  0.33140000  0.05430000  1
  C  C110  1  0.88050000  0.19980000  0.52540000  1
  C  C111  1  0.77270000  0.60750000  0.41540000  1
  C  C112  1  0.85771000  0.26024000  0.47759000  1
  C  C113  1  0.07080000  0.72290000  0.66860000  1
  C  C114  1  0.61988000  0.47759000  0.21735000  1
  C  C115  1  0.67620000  0.93590000  0.27010000  1
  C  C116  1  0.23770000  0.39350000  0.82000000  1
  C  C117  1  0.29031000  0.49242000  0.83211000  1
  C  C118  1  0.08380000  0.76360000  0.59580000  1
  C  C119  1  0.25980000  0.29680000  0.76340000  1
  C  C120  1  0.74020000  0.70320000  0.23660000  1
  C  C121  1  0.91620000  0.23640000  0.40420000  1
  C  C122  1  0.70969000  0.50758000  0.16789000  1
  C  C123  1  0.76230000  0.60650000  0.18000000  1
  C  C124  1  0.32380000  0.06410000  0.72990000  1
  C  C125  1  0.38012000  0.52241000  0.78265000  1
  C  C126  1  0.92920000  0.27710000  0.33140000  1
  C  C127  1  0.14229000  0.73976000  0.52241000  1
  C  C128  1  0.22730000  0.39250000  0.58460000  1
  C  C129  1  0.11950000  0.80020000  0.47460000  1
  C  C130  1  0.59780000  0.66860000  0.94570000  1
  C  C131  1  0.76630000  0.44740000  0.10270000  1
  C  C132  1  0.74030000  0.33420000  0.06410000  1
  C  C133  1  0.51200000  0.59580000  0.83220000  1
  C  C134  1  0.35510000  0.47460000  0.67440000  1
  C  C135  1  0.33640000  0.10270000  0.65530000  1
  C  C136  1  0.20211000  0.66031000  0.49242000  1
  C  C137  1  0.98890000  0.91554000  0.26436000  1
  C  C138  1  0.03700000  0.53340000  0.29680000  1
  C  C139  1  0.40610000  0.72990000  0.66580000  1
  C  C140  1  0.15580000  0.57350000  0.39350000  1
  C  C141  1  0.31890000  0.65530000  0.55260000  1
  C  C142  1  0.16520000  0.80790000  0.39250000  1
  C  C143  1  0.45820000  0.16789000  0.66031000  1
  C  C144  1  0.64270000  0.41540000  0.80790000  1
  C  C145  1  0.41770000  0.18000000  0.57350000  1
  C  C146  1  0.59747000  0.21735000  0.73976000  1
  C  C147  1  0.68070000  0.32560000  0.80020000  1
  C  C148  1  0.67980000  0.16780000  0.76360000  1
  C  C149  1  0.27546000  0.26436000  0.34882000  1
  C  C150  1  0.65210000  0.05430000  0.72290000  1
  C  C151  1  0.49640000  0.23660000  0.53340000  1
  C  C152  1  0.07336000  0.34882000  0.08446000  1
  S  S153  1  0.90173000  0.71753000  0.85681000  1
  S  S154  1  0.81580000  0.86072000  0.71753000  1
  S  S155  1  0.04492000  0.14319000  0.86072000  1
  S  S156  1  0.95508000  0.85681000  0.13928000  1
  S  S157  1  0.18420000  0.13928000  0.28247000  1
  S  S158  1  0.09827000  0.28247000  0.14319000  1
  N  N159  1  0.05257000  0.39634000  0.04357000  1
  N  N160  1  0.19862000  0.75580000  0.16646000  1
  N  N161  1  0.19333000  0.65759000  0.14230000  1
  N  N162  1  0.65623000  0.64723000  0.60366000  1
  N  N163  1  0.65827000  0.42838000  0.50613000  1
  N  N164  1  0.75879000  0.47581000  0.60216000  1
  N  N165  1  0.53574000  0.48471000  0.34241000  1
  N  N166  1  0.44282000  0.41066000  0.24420000  1
  N  N167  1  0.15214000  0.49387000  0.92225000  1
  N  N168  1  0.71702000  0.87365000  0.47581000  1
  N  N169  1  0.15663000  0.39784000  0.87365000  1
  N  N170  1  0.77011000  0.92225000  0.42838000  1
  N  N171  1  0.99100000  0.04357000  0.64723000  1
  N  N172  1  0.03216000  0.83354000  0.58934000  1
  N  N173  1  0.94897000  0.14230000  0.48471000  1
  N  N174  1  0.05103000  0.85770000  0.51529000  1
  N  N175  1  0.96784000  0.16646000  0.41066000  1
  N  N176  1  0.00900000  0.95643000  0.35277000  1
  N  N177  1  0.22989000  0.07775000  0.57162000  1
  N  N178  1  0.84337000  0.60216000  0.12635000  1
  N  N179  1  0.28298000  0.12635000  0.52419000  1
  N  N180  1  0.84786000  0.50613000  0.07775000  1
  N  N181  1  0.55718000  0.58934000  0.75580000  1
  N  N182  1  0.46426000  0.51529000  0.65759000  1
  N  N183  1  0.24121000  0.52419000  0.39784000  1
  N  N184  1  0.34173000  0.57162000  0.49387000  1
  N  N185  1  0.34377000  0.35277000  0.39634000  1
  N  N186  1  0.80667000  0.34241000  0.85770000  1
  N  N187  1  0.80138000  0.24420000  0.83354000  1
  N  N188  1  0.94743000  0.60366000  0.95643000  1
