# generated using pymatgen
data_HoAgH8C18(NO2)4
_symmetry_space_group_name_H-M   'P 1'
_cell_length_a   8.48840000
_cell_length_b   17.80600000
_cell_length_c   25.37000000
_cell_angle_alpha   90.00000000
_cell_angle_beta   90.00000000
_cell_angle_gamma   90.00000000
_symmetry_Int_Tables_number   1
_chemical_formula_structural   HoAgH8C18(NO2)4
_chemical_formula_sum   'Ho8 Ag8 H64 C144 N32 O64'
_cell_volume   3834.53470665
_cell_formula_units_Z   8
loop_
 _symmetry_equiv_pos_site_id
 _symmetry_equiv_pos_as_xyz
  1  'x, y, z'
loop_
 _atom_site_type_symbol
 _atom_site_label
 _atom_site_symmetry_multiplicity
 _atom_site_fract_x
 _atom_site_fract_y
 _atom_site_fract_z
 _atom_site_occupancy
  Ho  Ho0  1  0.83426000  0.21751000  0.97664000  1
  Ho  Ho1  1  0.83426000  0.71751000  0.52336000  1
  Ho  Ho2  1  0.66574000  0.71751000  0.97664000  1
  Ho  Ho3  1  0.66574000  0.21751000  0.52336000  1
  Ho  Ho4  1  0.33426000  0.78249000  0.47664000  1
  Ho  Ho5  1  0.33426000  0.28249000  0.02336000  1
  Ho  Ho6  1  0.16574000  0.28249000  0.47664000  1
  Ho  Ho7  1  0.16574000  0.78249000  0.02336000  1
  Ag  Ag8  1  0.96163000  0.54826000  0.27269000  1
  Ag  Ag9  1  0.96163000  0.04826000  0.22731000  1
  Ag  Ag10  1  0.53837000  0.04826000  0.27269000  1
  Ag  Ag11  1  0.53837000  0.54826000  0.22731000  1
  Ag  Ag12  1  0.46163000  0.45174000  0.77269000  1
  Ag  Ag13  1  0.46163000  0.95174000  0.72731000  1
  Ag  Ag14  1  0.03837000  0.95174000  0.77269000  1
  Ag  Ag15  1  0.03837000  0.45174000  0.72731000  1
  H  H16  1  0.96470000  0.49260000  0.95490000  1
  H  H17  1  0.96470000  0.99260000  0.54510000  1
  H  H18  1  0.94350000  0.60040000  0.79490000  1
  H  H19  1  0.94350000  0.10040000  0.70510000  1
  H  H20  1  0.94020000  0.14230000  0.40370000  1
  H  H21  1  0.94020000  0.64230000  0.09630000  1
  H  H22  1  0.90110000  0.41760000  0.36070000  1
  H  H23  1  0.90110000  0.91760000  0.13930000  1
  H  H24  1  0.88280000  0.99670000  0.93290000  1
  H  H25  1  0.88280000  0.49670000  0.56710000  1
  H  H26  1  0.81210000  0.34050000  0.79810000  1
  H  H27  1  0.81210000  0.84050000  0.70190000  1
  H  H28  1  0.77920000  0.60590000  0.86930000  1
  H  H29  1  0.77920000  0.10590000  0.63070000  1
  H  H30  1  0.75310000  0.17280000  0.33790000  1
  H  H31  1  0.75310000  0.67280000  0.16210000  1
  H  H32  1  0.74690000  0.67280000  0.33790000  1
  H  H33  1  0.74690000  0.17280000  0.16210000  1
  H  H34  1  0.72080000  0.10590000  0.86930000  1
  H  H35  1  0.72080000  0.60590000  0.63070000  1
  H  H36  1  0.68790000  0.84050000  0.79810000  1
  H  H37  1  0.68790000  0.34050000  0.70190000  1
  H  H38  1  0.61720000  0.49670000  0.93290000  1
  H  H39  1  0.61720000  0.99670000  0.56710000  1
  H  H40  1  0.59890000  0.91760000  0.36070000  1
  H  H41  1  0.59890000  0.41760000  0.13930000  1
  H  H42  1  0.55980000  0.64230000  0.40370000  1
  H  H43  1  0.55980000  0.14230000  0.09630000  1
  H  H44  1  0.55650000  0.10040000  0.79490000  1
  H  H45  1  0.55650000  0.60040000  0.70510000  1
  H  H46  1  0.53530000  0.99260000  0.95490000  1
  H  H47  1  0.53530000  0.49260000  0.54510000  1
  H  H48  1  0.46470000  0.50740000  0.45490000  1
  H  H49  1  0.46470000  0.00740000  0.04510000  1
  H  H50  1  0.44350000  0.39960000  0.29490000  1
  H  H51  1  0.44350000  0.89960000  0.20510000  1
  H  H52  1  0.44020000  0.85770000  0.90370000  1
  H  H53  1  0.44020000  0.35770000  0.59630000  1
  H  H54  1  0.40110000  0.58240000  0.86070000  1
  H  H55  1  0.40110000  0.08240000  0.63930000  1
  H  H56  1  0.38280000  0.00330000  0.43290000  1
  H  H57  1  0.38280000  0.50330000  0.06710000  1
  H  H58  1  0.31210000  0.65950000  0.29810000  1
  H  H59  1  0.31210000  0.15950000  0.20190000  1
  H  H60  1  0.27920000  0.39410000  0.36930000  1
  H  H61  1  0.27920000  0.89410000  0.13070000  1
  H  H62  1  0.25310000  0.82720000  0.83790000  1
  H  H63  1  0.25310000  0.32720000  0.66210000  1
  H  H64  1  0.24690000  0.32720000  0.83790000  1
  H  H65  1  0.24690000  0.82720000  0.66210000  1
  H  H66  1  0.22080000  0.89410000  0.36930000  1
  H  H67  1  0.22080000  0.39410000  0.13070000  1
  H  H68  1  0.18790000  0.15950000  0.29810000  1
  H  H69  1  0.18790000  0.65950000  0.20190000  1
  H  H70  1  0.11720000  0.50330000  0.43290000  1
  H  H71  1  0.11720000  0.00330000  0.06710000  1
  H  H72  1  0.09890000  0.08240000  0.86070000  1
  H  H73  1  0.09890000  0.58240000  0.63930000  1
  H  H74  1  0.05980000  0.35770000  0.90370000  1
  H  H75  1  0.05980000  0.85770000  0.59630000  1
  H  H76  1  0.05650000  0.89960000  0.29490000  1
  H  H77  1  0.05650000  0.39960000  0.20510000  1
  H  H78  1  0.03530000  0.00740000  0.45490000  1
  H  H79  1  0.03530000  0.50740000  0.04510000  1
  C  C80  1  0.98980000  0.87070000  0.48272000  1
  C  C81  1  0.98980000  0.37070000  0.01728000  1
  C  C82  1  0.95200000  0.85400000  0.95335000  1
  C  C83  1  0.95200000  0.35400000  0.54665000  1
  C  C84  1  0.94650000  0.98970000  0.43741000  1
  C  C85  1  0.94650000  0.48970000  0.06259000  1
  C  C86  1  0.89460000  0.91680000  0.44435000  1
  C  C87  1  0.89460000  0.41680000  0.05565000  1
  C  C88  1  0.89170000  0.55980000  0.81011000  1
  C  C89  1  0.89170000  0.05980000  0.68989000  1
  C  C90  1  0.86600000  0.88790000  0.90770000  1
  C  C91  1  0.86600000  0.38790000  0.59230000  1
  C  C92  1  0.86170000  0.03580000  0.40334000  1
  C  C93  1  0.86170000  0.53580000  0.09666000  1
  C  C94  1  0.84270000  0.75780000  0.86473000  1
  C  C95  1  0.84270000  0.25780000  0.63527000  1
  C  C96  1  0.84170000  0.96560000  0.90684000  1
  C  C97  1  0.84170000  0.46560000  0.59316000  1
  C  C98  1  0.81570000  0.43550000  0.37999000  1
  C  C99  1  0.81570000  0.93550000  0.12001000  1
  C  C100  1  0.81080000  0.31410000  0.42663000  1
  C  C101  1  0.81080000  0.81410000  0.07337000  1
  C  C102  1  0.80900000  0.84090000  0.86670000  1
  C  C103  1  0.80900000  0.34090000  0.63330000  1
  C  C104  1  0.80860000  0.44760000  0.82586000  1
  C  C105  1  0.80860000  0.94760000  0.67414000  1
  C  C106  1  0.77660000  0.37090000  0.82545000  1
  C  C107  1  0.77660000  0.87090000  0.67455000  1
  C  C108  1  0.76770000  0.12560000  0.35281000  1
  C  C109  1  0.76770000  0.62560000  0.14719000  1
  C  C110  1  0.76070000  0.50790000  0.37250000  1
  C  C111  1  0.76070000  0.00790000  0.12750000  1
  C  C112  1  0.75890000  0.89000000  0.41690000  1
  C  C113  1  0.75890000  0.39000000  0.08310000  1
  C  C114  1  0.75310000  0.99430000  0.86514000  1
  C  C115  1  0.75310000  0.49430000  0.63486000  1
  C  C116  1  0.74690000  0.49430000  0.86514000  1
  C  C117  1  0.74690000  0.99430000  0.63486000  1
  C  C118  1  0.74110000  0.39000000  0.41690000  1
  C  C119  1  0.74110000  0.89000000  0.08310000  1
  C  C120  1  0.73930000  0.00790000  0.37250000  1
  C  C121  1  0.73930000  0.50790000  0.12750000  1
  C  C122  1  0.73230000  0.62560000  0.35281000  1
  C  C123  1  0.73230000  0.12560000  0.14719000  1
  C  C124  1  0.72340000  0.87090000  0.82545000  1
  C  C125  1  0.72340000  0.37090000  0.67455000  1
  C  C126  1  0.69140000  0.94760000  0.82586000  1
  C  C127  1  0.69140000  0.44760000  0.67414000  1
  C  C128  1  0.69100000  0.34090000  0.86670000  1
  C  C129  1  0.69100000  0.84090000  0.63330000  1
  C  C130  1  0.68920000  0.81410000  0.42663000  1
  C  C131  1  0.68920000  0.31410000  0.07337000  1
  C  C132  1  0.68430000  0.93550000  0.37999000  1
  C  C133  1  0.68430000  0.43550000  0.12001000  1
  C  C134  1  0.65830000  0.46560000  0.90684000  1
  C  C135  1  0.65830000  0.96560000  0.59316000  1
  C  C136  1  0.65730000  0.25780000  0.86473000  1
  C  C137  1  0.65730000  0.75780000  0.63527000  1
  C  C138  1  0.63830000  0.53580000  0.40334000  1
  C  C139  1  0.63830000  0.03580000  0.09666000  1
  C  C140  1  0.63400000  0.38790000  0.90770000  1
  C  C141  1  0.63400000  0.88790000  0.59230000  1
  C  C142  1  0.60830000  0.05980000  0.81011000  1
  C  C143  1  0.60830000  0.55980000  0.68989000  1
  C  C144  1  0.60540000  0.41680000  0.44435000  1
  C  C145  1  0.60540000  0.91680000  0.05565000  1
  C  C146  1  0.55350000  0.48970000  0.43741000  1
  C  C147  1  0.55350000  0.98970000  0.06259000  1
  C  C148  1  0.54800000  0.35400000  0.95335000  1
  C  C149  1  0.54800000  0.85400000  0.54665000  1
  C  C150  1  0.51020000  0.37070000  0.48272000  1
  C  C151  1  0.51020000  0.87070000  0.01728000  1
  C  C152  1  0.48980000  0.12930000  0.98272000  1
  C  C153  1  0.48980000  0.62930000  0.51728000  1
  C  C154  1  0.45200000  0.14600000  0.45335000  1
  C  C155  1  0.45200000  0.64600000  0.04665000  1
  C  C156  1  0.44650000  0.01030000  0.93741000  1
  C  C157  1  0.44650000  0.51030000  0.56259000  1
  C  C158  1  0.39460000  0.08320000  0.94435000  1
  C  C159  1  0.39460000  0.58320000  0.55565000  1
  C  C160  1  0.39170000  0.44020000  0.31011000  1
  C  C161  1  0.39170000  0.94020000  0.18989000  1
  C  C162  1  0.36600000  0.11210000  0.40770000  1
  C  C163  1  0.36600000  0.61210000  0.09230000  1
  C  C164  1  0.36170000  0.96420000  0.90334000  1
  C  C165  1  0.36170000  0.46420000  0.59666000  1
  C  C166  1  0.34270000  0.24220000  0.36473000  1
  C  C167  1  0.34270000  0.74220000  0.13527000  1
  C  C168  1  0.34170000  0.03440000  0.40684000  1
  C  C169  1  0.34170000  0.53440000  0.09316000  1
  C  C170  1  0.31570000  0.56450000  0.87999000  1
  C  C171  1  0.31570000  0.06450000  0.62001000  1
  C  C172  1  0.31080000  0.68590000  0.92663000  1
  C  C173  1  0.31080000  0.18590000  0.57337000  1
  C  C174  1  0.30900000  0.15910000  0.36670000  1
  C  C175  1  0.30900000  0.65910000  0.13330000  1
  C  C176  1  0.30860000  0.55240000  0.32586000  1
  C  C177  1  0.30860000  0.05240000  0.17414000  1
  C  C178  1  0.27660000  0.62910000  0.32545000  1
  C  C179  1  0.27660000  0.12910000  0.17455000  1
  C  C180  1  0.26770000  0.87440000  0.85281000  1
  C  C181  1  0.26770000  0.37440000  0.64719000  1
  C  C182  1  0.26070000  0.49210000  0.87250000  1
  C  C183  1  0.26070000  0.99210000  0.62750000  1
  C  C184  1  0.25890000  0.11000000  0.91690000  1
  C  C185  1  0.25890000  0.61000000  0.58310000  1
  C  C186  1  0.25310000  0.00570000  0.36514000  1
  C  C187  1  0.25310000  0.50570000  0.13486000  1
  C  C188  1  0.24690000  0.50570000  0.36514000  1
  C  C189  1  0.24690000  0.00570000  0.13486000  1
  C  C190  1  0.24110000  0.61000000  0.91690000  1
  C  C191  1  0.24110000  0.11000000  0.58310000  1
  C  C192  1  0.23930000  0.99210000  0.87250000  1
  C  C193  1  0.23930000  0.49210000  0.62750000  1
  C  C194  1  0.23230000  0.37440000  0.85281000  1
  C  C195  1  0.23230000  0.87440000  0.64719000  1
  C  C196  1  0.22340000  0.12910000  0.32545000  1
  C  C197  1  0.22340000  0.62910000  0.17455000  1
  C  C198  1  0.19140000  0.05240000  0.32586000  1
  C  C199  1  0.19140000  0.55240000  0.17414000  1
  C  C200  1  0.19100000  0.65910000  0.36670000  1
  C  C201  1  0.19100000  0.15910000  0.13330000  1
  C  C202  1  0.18920000  0.18590000  0.92663000  1
  C  C203  1  0.18920000  0.68590000  0.57337000  1
  C  C204  1  0.18430000  0.06450000  0.87999000  1
  C  C205  1  0.18430000  0.56450000  0.62001000  1
  C  C206  1  0.15830000  0.53440000  0.40684000  1
  C  C207  1  0.15830000  0.03440000  0.09316000  1
  C  C208  1  0.15730000  0.74220000  0.36473000  1
  C  C209  1  0.15730000  0.24220000  0.13527000  1
  C  C210  1  0.13830000  0.46420000  0.90334000  1
  C  C211  1  0.13830000  0.96420000  0.59666000  1
  C  C212  1  0.13400000  0.61210000  0.40770000  1
  C  C213  1  0.13400000  0.11210000  0.09230000  1
  C  C214  1  0.10830000  0.94020000  0.31011000  1
  C  C215  1  0.10830000  0.44020000  0.18989000  1
  C  C216  1  0.10540000  0.58320000  0.94435000  1
  C  C217  1  0.10540000  0.08320000  0.55565000  1
  C  C218  1  0.05350000  0.51030000  0.93741000  1
  C  C219  1  0.05350000  0.01030000  0.56259000  1
  C  C220  1  0.04800000  0.64600000  0.45335000  1
  C  C221  1  0.04800000  0.14600000  0.04665000  1
  C  C222  1  0.01020000  0.62930000  0.98272000  1
  C  C223  1  0.01020000  0.12930000  0.51728000  1
  N  N224  1  0.90050000  0.49055000  0.79178000  1
  N  N225  1  0.90050000  0.99055000  0.70822000  1
  N  N226  1  0.87490000  0.11071000  0.39028000  1
  N  N227  1  0.87490000  0.61071000  0.10972000  1
  N  N228  1  0.81460000  0.56548000  0.33955000  1
  N  N229  1  0.81460000  0.06548000  0.16045000  1
  N  N230  1  0.80080000  0.56521000  0.85255000  1
  N  N231  1  0.80080000  0.06521000  0.64745000  1
  N  N232  1  0.69920000  0.06521000  0.85255000  1
  N  N233  1  0.69920000  0.56521000  0.64745000  1
  N  N234  1  0.68540000  0.06548000  0.33955000  1
  N  N235  1  0.68540000  0.56548000  0.16045000  1
  N  N236  1  0.62510000  0.61071000  0.39028000  1
  N  N237  1  0.62510000  0.11071000  0.10972000  1
  N  N238  1  0.59950000  0.99055000  0.79178000  1
  N  N239  1  0.59950000  0.49055000  0.70822000  1
  N  N240  1  0.40050000  0.50945000  0.29178000  1
  N  N241  1  0.40050000  0.00945000  0.20822000  1
  N  N242  1  0.37490000  0.88929000  0.89028000  1
  N  N243  1  0.37490000  0.38929000  0.60972000  1
  N  N244  1  0.31460000  0.43452000  0.83955000  1
  N  N245  1  0.31460000  0.93452000  0.66045000  1
  N  N246  1  0.30080000  0.43479000  0.35255000  1
  N  N247  1  0.30080000  0.93479000  0.14745000  1
  N  N248  1  0.19920000  0.93479000  0.35255000  1
  N  N249  1  0.19920000  0.43479000  0.14745000  1
  N  N250  1  0.18540000  0.93452000  0.83955000  1
  N  N251  1  0.18540000  0.43452000  0.66045000  1
  N  N252  1  0.12510000  0.38929000  0.89028000  1
  N  N253  1  0.12510000  0.88929000  0.60972000  1
  N  N254  1  0.09950000  0.00945000  0.29178000  1
  N  N255  1  0.09950000  0.50945000  0.20822000  1
  O  O256  1  0.95780000  0.30828000  0.42025000  1
  O  O257  1  0.95780000  0.80828000  0.07975000  1
  O  O258  1  0.94970000  0.73435000  0.83663000  1
  O  O259  1  0.94970000  0.23435000  0.66337000  1
  O  O260  1  0.93540000  0.61239000  0.47478000  1
  O  O261  1  0.93540000  0.11239000  0.02522000  1
  O  O262  1  0.92210000  0.33884000  0.97894000  1
  O  O263  1  0.92210000  0.83884000  0.52106000  1
  O  O264  1  0.91190000  0.78855000  0.96901000  1
  O  O265  1  0.91190000  0.28855000  0.53099000  1
  O  O266  1  0.86390000  0.62882000  0.97599000  1
  O  O267  1  0.86390000  0.12882000  0.52401000  1
  O  O268  1  0.77560000  0.75989000  0.44015000  1
  O  O269  1  0.77560000  0.25989000  0.05985000  1
  O  O270  1  0.75220000  0.21460000  0.88979000  1
  O  O271  1  0.75220000  0.71460000  0.61021000  1
  O  O272  1  0.74780000  0.71460000  0.88979000  1
  O  O273  1  0.74780000  0.21460000  0.61021000  1
  O  O274  1  0.72440000  0.25989000  0.44015000  1
  O  O275  1  0.72440000  0.75989000  0.05985000  1
  O  O276  1  0.63610000  0.12882000  0.97599000  1
  O  O277  1  0.63610000  0.62882000  0.52401000  1
  O  O278  1  0.58810000  0.28855000  0.96901000  1
  O  O279  1  0.58810000  0.78855000  0.53099000  1
  O  O280  1  0.57790000  0.83884000  0.97894000  1
  O  O281  1  0.57790000  0.33884000  0.52106000  1
  O  O282  1  0.56460000  0.11239000  0.47478000  1
  O  O283  1  0.56460000  0.61239000  0.02522000  1
  O  O284  1  0.55030000  0.23435000  0.83663000  1
  O  O285  1  0.55030000  0.73435000  0.66337000  1
  O  O286  1  0.54220000  0.80828000  0.42025000  1
  O  O287  1  0.54220000  0.30828000  0.07975000  1
  O  O288  1  0.45780000  0.69172000  0.92025000  1
  O  O289  1  0.45780000  0.19172000  0.57975000  1
  O  O290  1  0.44970000  0.26565000  0.33663000  1
  O  O291  1  0.44970000  0.76565000  0.16337000  1
  O  O292  1  0.43540000  0.38761000  0.97478000  1
  O  O293  1  0.43540000  0.88761000  0.52522000  1
  O  O294  1  0.42210000  0.66116000  0.47894000  1
  O  O295  1  0.42210000  0.16116000  0.02106000  1
  O  O296  1  0.41190000  0.21145000  0.46901000  1
  O  O297  1  0.41190000  0.71145000  0.03099000  1
  O  O298  1  0.36390000  0.37118000  0.47599000  1
  O  O299  1  0.36390000  0.87118000  0.02401000  1
  O  O300  1  0.27560000  0.24011000  0.94015000  1
  O  O301  1  0.27560000  0.74011000  0.55985000  1
  O  O302  1  0.25220000  0.78540000  0.38979000  1
  O  O303  1  0.25220000  0.28540000  0.11021000  1
  O  O304  1  0.24780000  0.28540000  0.38979000  1
  O  O305  1  0.24780000  0.78540000  0.11021000  1
  O  O306  1  0.22440000  0.74011000  0.94015000  1
  O  O307  1  0.22440000  0.24011000  0.55985000  1
  O  O308  1  0.13610000  0.87118000  0.47599000  1
  O  O309  1  0.13610000  0.37118000  0.02401000  1
  O  O310  1  0.08810000  0.71145000  0.46901000  1
  O  O311  1  0.08810000  0.21145000  0.03099000  1
  O  O312  1  0.07790000  0.16116000  0.47894000  1
  O  O313  1  0.07790000  0.66116000  0.02106000  1
  O  O314  1  0.06460000  0.88761000  0.97478000  1
  O  O315  1  0.06460000  0.38761000  0.52522000  1
  O  O316  1  0.05030000  0.76565000  0.33663000  1
  O  O317  1  0.05030000  0.26565000  0.16337000  1
  O  O318  1  0.04220000  0.19172000  0.92025000  1
  O  O319  1  0.04220000  0.69172000  0.57975000  1
