# generated using pymatgen
data_LaP4C10(NO6)2
_symmetry_space_group_name_H-M   'P 1'
_cell_length_a   5.84900000
_cell_length_b   13.34440000
_cell_length_c   18.78200000
_cell_angle_alpha   90.00000000
_cell_angle_beta   90.00000000
_cell_angle_gamma   97.71100000
_symmetry_Int_Tables_number   1
_chemical_formula_structural   LaP4C10(NO6)2
_chemical_formula_sum   'La2 P8 C20 N4 O24'
_cell_volume   1452.70529535
_cell_formula_units_Z   2
loop_
 _symmetry_equiv_pos_site_id
 _symmetry_equiv_pos_as_xyz
  1  'x, y, z'
loop_
 _atom_site_type_symbol
 _atom_site_label
 _atom_site_symmetry_multiplicity
 _atom_site_fract_x
 _atom_site_fract_y
 _atom_site_fract_z
 _atom_site_occupancy
  La  La0  1  0.66490000  0.37110000  0.75000000  1
  La  La1  1  0.33510000  0.62890000  0.25000000  1
  P  P2  1  0.13700000  0.26690000  0.63360000  1
  P  P3  1  0.10630000  0.28030000  0.86510000  1
  P  P4  1  0.14400000  0.43990000  0.08530000  1
  P  P5  1  0.22000000  0.45760000  0.40450000  1
  P  P6  1  0.78000000  0.54240000  0.90450000  1
  P  P7  1  0.85600000  0.56010000  0.58530000  1
  P  P8  1  0.89370000  0.71970000  0.36510000  1
  P  P9  1  0.86300000  0.73310000  0.13360000  1
  C  C10  1  0.59600000  0.03030000  0.45870000  1
  C  C11  1  0.60400000  0.04700000  0.97850000  1
  C  C12  1  0.58500000  0.13740000  0.48080000  1
  C  C13  1  0.55800000  0.15500000  0.98130000  1
  C  C14  1  0.31800000  0.16430000  0.00550000  1
  C  C15  1  0.35100000  0.17040000  0.48170000  1
  C  C16  1  0.01800000  0.26600000  0.95710000  1
  C  C17  1  0.15500000  0.30600000  0.54170000  1
  C  C18  1  0.26100000  0.32480000  0.06240000  1
  C  C19  1  0.33600000  0.34030000  0.42070000  1
  C  C20  1  0.66400000  0.65970000  0.92070000  1
  C  C21  1  0.73900000  0.67520000  0.56240000  1
  C  C22  1  0.84500000  0.69400000  0.04170000  1
  C  C23  1  0.98200000  0.73400000  0.45710000  1
  C  C24  1  0.64900000  0.82960000  0.98170000  1
  C  C25  1  0.68200000  0.83570000  0.50550000  1
  C  C26  1  0.44200000  0.84500000  0.48130000  1
  C  C27  1  0.41500000  0.86260000  0.98080000  1
  C  C28  1  0.39600000  0.95300000  0.47850000  1
  C  C29  1  0.40400000  0.96970000  0.95870000  1
  N  N30  1  0.24900000  0.26740000  0.99270000  1
  N  N31  1  0.33700000  0.28170000  0.48970000  1
  N  N32  1  0.66300000  0.71830000  0.98970000  1
  N  N33  1  0.75100000  0.73260000  0.49270000  1
  O  O34  1  0.19300000  0.15740000  0.63800000  1
  O  O35  1  0.08000000  0.17310000  0.83260000  1
  O  O36  1  0.89100000  0.27100000  0.66130000  1
  O  O37  1  0.35800000  0.33080000  0.86280000  1
  O  O38  1  0.31600000  0.33900000  0.67580000  1
  O  O39  1  0.94800000  0.34740000  0.82840000  1
  O  O40  1  0.88100000  0.42300000  0.07430000  1
  O  O41  1  0.95500000  0.43700000  0.40910000  1
  O  O42  1  0.20600000  0.46300000  0.16360000  1
  O  O43  1  0.68400000  0.46620000  0.96240000  1
  O  O44  1  0.74200000  0.47510000  0.53660000  1
  O  O45  1  0.30000000  0.49670000  0.33040000  1
  O  O46  1  0.70000000  0.50330000  0.83040000  1
  O  O47  1  0.25800000  0.52490000  0.03660000  1
  O  O48  1  0.31600000  0.53380000  0.46240000  1
  O  O49  1  0.79400000  0.53700000  0.66360000  1
  O  O50  1  0.04500000  0.56300000  0.90910000  1
  O  O51  1  0.11900000  0.57700000  0.57430000  1
  O  O52  1  0.05200000  0.65260000  0.32840000  1
  O  O53  1  0.68400000  0.66100000  0.17580000  1
  O  O54  1  0.64200000  0.66920000  0.36280000  1
  O  O55  1  0.10900000  0.72900000  0.16130000  1
  O  O56  1  0.92000000  0.82690000  0.33260000  1
  O  O57  1  0.80700000  0.84260000  0.13800000  1
