# generated using pymatgen
data_Cu2H8C26S(NO4)2
_symmetry_space_group_name_H-M   'P 1'
_cell_length_a   18.82760000
_cell_length_b   18.82760000
_cell_length_c   54.14900000
_cell_angle_alpha   90.00000000
_cell_angle_beta   90.00000000
_cell_angle_gamma   120.00000000
_symmetry_Int_Tables_number   1
_chemical_formula_structural   Cu2H8C26S(NO4)2
_chemical_formula_sum   'Cu18 H72 C234 S9 N18 O72'
_cell_volume   16623.06099010
_cell_formula_units_Z   9
loop_
 _symmetry_equiv_pos_site_id
 _symmetry_equiv_pos_as_xyz
  1  'x, y, z'
loop_
 _atom_site_type_symbol
 _atom_site_label
 _atom_site_symmetry_multiplicity
 _atom_site_fract_x
 _atom_site_fract_y
 _atom_site_fract_z
 _atom_site_occupancy
  Cu  Cu0  1  0.99096000  0.46928000  0.01514000  1
  Cu  Cu1  1  0.90095000  0.71088000  0.68186000  1
  Cu  Cu2  1  0.90084000  0.13879000  0.68176000  1
  Cu  Cu3  1  0.85023000  0.61060000  0.72993000  1
  Cu  Cu4  1  0.85015000  0.18837000  0.72984000  1
  Cu  Cu5  1  0.75845000  0.85418000  0.39708000  1
  Cu  Cu6  1  0.65622000  0.80294000  0.34866000  1
  Cu  Cu7  1  0.56777000  0.04634000  0.01516000  1
  Cu  Cu8  1  0.56755000  0.46931000  0.01498000  1
  Cu  Cu9  1  0.51675000  0.94383000  0.06351000  1
  Cu  Cu10  1  0.51665000  0.52085000  0.06335000  1
  Cu  Cu11  1  0.42432000  0.18648000  0.73010000  1
  Cu  Cu12  1  0.32283000  0.13571000  0.68156000  1
  Cu  Cu13  1  0.23276000  0.37984000  0.34877000  1
  Cu  Cu14  1  0.23268000  0.80280000  0.34872000  1
  Cu  Cu15  1  0.18184000  0.85436000  0.39710000  1
  Cu  Cu16  1  0.18176000  0.27736000  0.39712000  1
  Cu  Cu17  1  0.09324000  0.52053000  0.06356000  1
  H  H18  1  0.97883000  0.79234000  0.22219000  1
  H  H19  1  0.97133000  0.57351000  0.64263000  1
  H  H20  1  0.97121000  0.34680000  0.64254000  1
  H  H21  1  0.96571000  0.76574000  0.17750000  1
  H  H22  1  0.95372000  0.31060000  0.10349000  1
  H  H23  1  0.95303000  0.59013000  0.10340000  1
  H  H24  1  0.94280000  0.79959000  0.37516000  1
  H  H25  1  0.94263000  0.09322000  0.37510000  1
  H  H26  1  0.93242000  0.47633000  0.51074000  1
  H  H27  1  0.90481000  0.46248000  0.55563000  1
  H  H28  1  0.90190000  0.42529000  0.70887000  1
  H  H29  1  0.84682000  0.89778000  0.70328000  1
  H  H30  1  0.84321000  0.85969000  0.85642000  1
  H  H31  1  0.81575000  0.84598000  0.90132000  1
  H  H32  1  0.80719000  0.52506000  0.03690000  1
  H  H33  1  0.80711000  0.23009000  0.03714000  1
  H  H34  1  0.79536000  0.01347000  0.30887000  1
  H  H35  1  0.79421000  0.72952000  0.30918000  1
  H  H36  1  0.77747000  0.74963000  0.76937000  1
  H  H37  1  0.77735000  0.97675000  0.76932000  1
  H  H38  1  0.77358000  0.16694000  0.23514000  1
  H  H39  1  0.76016000  0.18032000  0.19020000  1
  H  H40  1  0.72662000  0.08324000  0.10344000  1
  H  H41  1  0.72604000  0.59053000  0.10323000  1
  H  H42  1  0.69001000  0.57318000  0.64209000  1
  H  H43  1  0.68952000  0.06484000  0.64207000  1
  H  H44  1  0.64507000  0.13045000  0.55524000  1
  H  H45  1  0.63680000  0.90621000  0.97489000  1
  H  H46  1  0.63658000  0.67883000  0.97477000  1
  H  H47  1  0.63125000  0.10341000  0.51032000  1
  H  H48  1  0.61918000  0.64399000  0.43691000  1
  H  H49  1  0.61882000  0.92440000  0.43689000  1
  H  H50  1  0.61015000  0.42534000  0.70821000  1
  H  H51  1  0.61014000  0.13350000  0.70816000  1
  H  H52  1  0.57193000  0.75992000  0.04128000  1
  H  H53  1  0.51268000  0.23027000  0.03717000  1
  H  H54  1  0.47217000  0.85833000  0.37055000  1
  H  H55  1  0.47203000  0.56382000  0.37066000  1
  H  H56  1  0.46215000  0.34668000  0.64210000  1
  H  H57  1  0.46159000  0.06334000  0.64216000  1
  H  H58  1  0.44698000  0.08406000  0.10360000  1
  H  H59  1  0.44683000  0.31125000  0.10346000  1
  H  H60  1  0.44100000  0.50127000  0.56861000  1
  H  H61  1  0.42715000  0.51474000  0.52370000  1
  H  H62  1  0.39206000  0.41667000  0.43691000  1
  H  H63  1  0.39173000  0.92461000  0.43688000  1
  H  H64  1  0.35824000  0.90620000  0.97523000  1
  H  H65  1  0.35731000  0.39853000  0.97522000  1
  H  H66  1  0.30475000  0.24106000  0.30889000  1
  H  H67  1  0.30462000  0.01371000  0.30882000  1
  H  H68  1  0.28685000  0.97465000  0.76931000  1
  H  H69  1  0.28602000  0.25953000  0.76937000  1
  H  H70  1  0.27724000  0.46518000  0.04156000  1
  H  H71  1  0.27717000  0.76002000  0.04165000  1
  H  H72  1  0.26719000  0.14533000  0.17683000  1
  H  H73  1  0.23940000  0.13180000  0.22171000  1
  H  H74  1  0.23614000  0.09300000  0.37495000  1
  H  H75  1  0.22781000  0.46145000  0.88838000  1
  H  H76  1  0.21425000  0.43510000  0.84355000  1
  H  H77  1  0.19128000  0.91617000  0.90111000  1
  H  H78  1  0.17771000  0.56378000  0.37091000  1
  H  H79  1  0.17762000  0.92916000  0.85631000  1
  H  H80  1  0.13829000  0.19131000  0.70324000  1
  H  H81  1  0.13811000  0.89587000  0.70337000  1
  H  H82  1  0.13122000  0.67881000  0.97519000  1
  H  H83  1  0.13015000  0.39862000  0.97531000  1
  H  H84  1  0.11252000  0.64493000  0.43730000  1
  H  H85  1  0.11247000  0.41763000  0.43734000  1
  H  H86  1  0.06073000  0.74642000  0.76922000  1
  H  H87  1  0.05999000  0.26178000  0.76921000  1
  H  H88  1  0.02239000  0.24091000  0.30896000  1
  H  H89  1  0.02135000  0.72936000  0.30922000  1
  C  C90  1  0.99513000  0.47227000  0.61425000  1
  C  C91  1  0.99132000  0.17596000  0.34388000  1
  C  C92  1  0.99092000  0.76448000  0.34404000  1
  C  C93  1  0.98082000  0.48537000  0.52339000  1
  C  C94  1  0.97729000  0.18747000  0.31900000  1
  C  C95  1  0.97642000  0.73801000  0.31925000  1
  C  C96  1  0.97475000  0.46191000  0.64036000  1
  C  C97  1  0.96507000  0.47749000  0.54904000  1
  C  C98  1  0.96242000  0.52005000  0.65280000  1
  C  C99  1  0.96235000  0.39131000  0.65275000  1
  C  C100  1  0.94919000  0.35892000  0.05649000  1
  C  C101  1  0.94904000  0.53796000  0.05635000  1
  C  C102  1  0.93710000  0.15280000  0.21518000  1
  C  C103  1  0.93601000  0.50847000  0.67766000  1
  C  C104  1  0.93596000  0.37635000  0.67761000  1
  C  C105  1  0.93189000  0.10401000  0.35618000  1
  C  C106  1  0.93182000  0.73290000  0.21558000  1
  C  C107  1  0.93170000  0.77736000  0.35631000  1
  C  C108  1  0.92964000  0.16016000  0.19025000  1
  C  C109  1  0.92425000  0.71765000  0.18991000  1
  C  C110  1  0.92354000  0.43616000  0.68996000  1
  C  C111  1  0.91750000  0.56575000  0.68900000  1
  C  C112  1  0.91742000  0.30051000  0.68891000  1
  C  C113  1  0.90696000  0.12911000  0.30652000  1
  C  C114  1  0.90581000  0.72550000  0.30683000  1
  C  C115  1  0.90050000  0.26533000  0.09340000  1
  C  C116  1  0.89997000  0.58239000  0.09326000  1
  C  C117  1  0.89714000  0.13908000  0.28039000  1
  C  C118  1  0.89555000  0.70492000  0.28077000  1
  C  C119  1  0.88982000  0.14660000  0.25845000  1
  C  C120  1  0.88933000  0.27913000  0.06847000  1
  C  C121  1  0.88909000  0.55781000  0.06830000  1
  C  C122  1  0.88796000  0.68956000  0.25888000  1
  C  C123  1  0.88182000  0.15495000  0.23210000  1
  C  C124  1  0.87977000  0.67278000  0.23258000  1
  C  C125  1  0.86631000  0.17017000  0.18041000  1
  C  C126  1  0.86428000  0.64172000  0.18025000  1
  C  C127  1  0.86011000  0.04450000  0.34383000  1
  C  C128  1  0.85967000  0.76458000  0.34401000  1
  C  C129  1  0.85860000  0.17824000  0.15403000  1
  C  C130  1  0.85707000  0.62642000  0.15388000  1
  C  C131  1  0.85155000  0.18545000  0.13205000  1
  C  C132  1  0.85044000  0.61258000  0.13190000  1
  C  C133  1  0.84868000  0.05862000  0.31895000  1
  C  C134  1  0.84774000  0.73811000  0.31922000  1
  C  C135  1  0.84206000  0.19503000  0.10587000  1
  C  C136  1  0.84138000  0.59406000  0.10570000  1
  C  C137  1  0.83224000  0.75457000  0.72264000  1
  C  C138  1  0.83216000  0.02645000  0.72258000  1
  C  C139  1  0.82481000  0.88681000  0.72215000  1
  C  C140  1  0.81766000  0.21950000  0.05610000  1
  C  C141  1  0.81764000  0.16500000  0.22270000  1
  C  C142  1  0.81756000  0.54595000  0.05588000  1
  C  C143  1  0.81664000  0.59287000  0.22267000  1
  C  C144  1  0.81210000  0.81470000  0.73447000  1
  C  C145  1  0.81204000  0.94622000  0.73444000  1
  C  C146  1  0.80996000  0.17259000  0.19703000  1
  C  C147  1  0.80932000  0.57818000  0.19790000  1
  C  C148  1  0.80033000  0.96461000  0.35577000  1
  C  C149  1  0.80011000  0.78510000  0.35589000  1
  C  C150  1  0.78598000  0.80309000  0.75931000  1
  C  C151  1  0.78591000  0.93179000  0.75927000  1
  C  C152  1  0.78326000  0.84559000  0.86304000  1
  C  C153  1  0.77358000  0.86128000  0.77173000  1
  C  C154  1  0.77186000  0.13652000  0.09337000  1
  C  C155  1  0.77138000  0.58263000  0.09316000  1
  C  C156  1  0.76760000  0.83781000  0.88869000  1
  C  C157  1  0.75810000  0.14774000  0.06844000  1
  C  C158  1  0.75789000  0.55803000  0.06820000  1
  C  C159  1  0.75331000  0.85120000  0.79785000  1
  C  C160  1  0.73904000  0.56775000  0.68889000  1
  C  C161  1  0.73890000  0.11987000  0.68882000  1
  C  C162  1  0.73822000  0.84362000  0.81979000  1
  C  C163  1  0.72184000  0.83526000  0.84617000  1
  C  C164  1  0.69029000  0.81961000  0.89785000  1
  C  C165  1  0.67834000  0.08785000  0.05645000  1
  C  C166  1  0.67821000  0.53828000  0.05620000  1
  C  C167  1  0.67383000  0.81131000  0.92422000  1
  C  C168  1  0.65935000  0.80397000  0.94619000  1
  C  C169  1  0.65896000  0.50813000  0.67699000  1
  C  C170  1  0.65872000  0.09920000  0.67696000  1
  C  C171  1  0.64540000  0.81717000  0.85575000  1
  C  C172  1  0.64481000  0.51985000  0.65215000  1
  C  C173  1  0.64437000  0.07303000  0.65214000  1
  C  C174  1  0.64037000  0.79437000  0.97239000  1
  C  C175  1  0.63018000  0.80961000  0.88067000  1
  C  C176  1  0.62892000  0.85298000  0.98495000  1
  C  C177  1  0.62879000  0.72416000  0.98488000  1
  C  C178  1  0.61432000  0.69255000  0.38997000  1
  C  C179  1  0.61431000  0.87161000  0.38991000  1
  C  C180  1  0.60451000  0.84198000  0.00994000  1
  C  C181  1  0.60439000  0.71058000  0.00987000  1
  C  C182  1  0.60320000  0.48525000  0.54838000  1
  C  C183  1  0.59933000  0.43632000  0.68932000  1
  C  C184  1  0.59918000  0.07058000  0.54857000  1
  C  C185  1  0.59917000  0.11147000  0.68929000  1
  C  C186  1  0.59549000  0.49264000  0.52348000  1
  C  C187  1  0.59259000  0.77031000  0.02228000  1
  C  C188  1  0.59128000  0.05518000  0.52292000  1
  C  C189  1  0.58504000  0.90206000  0.02203000  1
  C  C190  1  0.58483000  0.63093000  0.02191000  1
  C  C191  1  0.57418000  0.46186000  0.63972000  1
  C  C192  1  0.57361000  0.06019000  0.63975000  1
  C  C193  1  0.56588000  0.59880000  0.42684000  1
  C  C194  1  0.56560000  0.91645000  0.42681000  1
  C  C195  1  0.56420000  0.47200000  0.61363000  1
  C  C196  1  0.56353000  0.04004000  0.61366000  1
  C  C197  1  0.55671000  0.47962000  0.59171000  1
  C  C198  1  0.55606000  0.02511000  0.59173000  1
  C  C199  1  0.55450000  0.61271000  0.40194000  1
  C  C200  1  0.55442000  0.89151000  0.40187000  1
  C  C201  1  0.54848000  0.48805000  0.56539000  1
  C  C202  1  0.54807000  0.00899000  0.56538000  1
  C  C203  1  0.53247000  0.50336000  0.51375000  1
  C  C204  1  0.53210000  0.97797000  0.51373000  1
  C  C205  1  0.52723000  0.37717000  0.67700000  1
  C  C206  1  0.52696000  0.09835000  0.67701000  1
  C  C207  1  0.52450000  0.51147000  0.48740000  1
  C  C208  1  0.52392000  0.96175000  0.48739000  1
  C  C209  1  0.51725000  0.51875000  0.46545000  1
  C  C210  1  0.51669000  0.94733000  0.46544000  1
  C  C211  1  0.51571000  0.39152000  0.65215000  1
  C  C212  1  0.51523000  0.07217000  0.65219000  1
  C  C213  1  0.50753000  0.52844000  0.43930000  1
  C  C214  1  0.50714000  0.92824000  0.43928000  1
  C  C215  1  0.49941000  0.08819000  0.05653000  1
  C  C216  1  0.49932000  0.35920000  0.05640000  1
  C  C217  1  0.49173000  0.21987000  0.05614000  1
  C  C218  1  0.48965000  0.93265000  0.55577000  1
  C  C219  1  0.48462000  0.49882000  0.55610000  1
  C  C220  1  0.48274000  0.87946000  0.38951000  1
  C  C221  1  0.48273000  0.55315000  0.38960000  1
  C  C222  1  0.48196000  0.91768000  0.53085000  1
  C  C223  1  0.47972000  0.14823000  0.06854000  1
  C  C224  1  0.47966000  0.27956000  0.06846000  1
  C  C225  1  0.47669000  0.50645000  0.53045000  1
  C  C226  1  0.46713000  0.29729000  0.68890000  1
  C  C227  1  0.46698000  0.11828000  0.68890000  1
  C  C228  1  0.45494000  0.13725000  0.09349000  1
  C  C229  1  0.45486000  0.26597000  0.09341000  1
  C  C230  1  0.45249000  0.18135000  0.19764000  1
  C  C231  1  0.44319000  0.19583000  0.10595000  1
  C  C232  1  0.43721000  0.47000000  0.42684000  1
  C  C233  1  0.43710000  0.17388000  0.22254000  1
  C  C234  1  0.43695000  0.91657000  0.42680000  1
  C  C235  1  0.42385000  0.18636000  0.13211000  1
  C  C236  1  0.42325000  0.48133000  0.40194000  1
  C  C237  1  0.42318000  0.89164000  0.40187000  1
  C  C238  1  0.40914000  0.17929000  0.15407000  1
  C  C239  1  0.40614000  0.90210000  0.02229000  1
  C  C240  1  0.40590000  0.45170000  0.02217000  1
  C  C241  1  0.39253000  0.17137000  0.18042000  1
  C  C242  1  0.36061000  0.15591000  0.23206000  1
  C  C243  1  0.34401000  0.14733000  0.25841000  1
  C  C244  1  0.34342000  0.42148000  0.38998000  1
  C  C245  1  0.34342000  0.87180000  0.38991000  1
  C  C246  1  0.32883000  0.13957000  0.28034000  1
  C  C247  1  0.32645000  0.84208000  0.01029000  1
  C  C248  1  0.32606000  0.43171000  0.01024000  1
  C  C249  1  0.31521000  0.15343000  0.18950000  1
  C  C250  1  0.31292000  0.85303000  0.98532000  1
  C  C251  1  0.31213000  0.40660000  0.98532000  1
  C  C252  1  0.30857000  0.12934000  0.30645000  1
  C  C253  1  0.29936000  0.14574000  0.21514000  1
  C  C254  1  0.29631000  0.18756000  0.31891000  1
  C  C255  1  0.29623000  0.05876000  0.31887000  1
  C  C256  1  0.28064000  0.02458000  0.72269000  1
  C  C257  1  0.28050000  0.20455000  0.72265000  1
  C  C258  1  0.27044000  0.17588000  0.34377000  1
  C  C259  1  0.27037000  0.04448000  0.34373000  1
  C  C260  1  0.26678000  0.77041000  0.02266000  1
  C  C261  1  0.26656000  0.44393000  0.02261000  1
  C  C262  1  0.25788000  0.10390000  0.35606000  1
  C  C263  1  0.25035000  0.23566000  0.35575000  1
  C  C264  1  0.25025000  0.96457000  0.35570000  1
  C  C265  1  0.24287000  0.79437000  0.97281000  1
  C  C266  1  0.24183000  0.39481000  0.97288000  1
  C  C267  1  0.23366000  0.80361000  0.94661000  1
  C  C268  1  0.23347000  0.92953000  0.75925000  1
  C  C269  1  0.23284000  0.25162000  0.75927000  1
  C  C270  1  0.23212000  0.37561000  0.94672000  1
  C  C271  1  0.22983000  0.76796000  0.88137000  1
  C  C272  1  0.22674000  0.81047000  0.92461000  1
  C  C273  1  0.22476000  0.36116000  0.92477000  1
  C  C274  1  0.22193000  0.77550000  0.85535000  1
  C  C275  1  0.22132000  0.94416000  0.73450000  1
  C  C276  1  0.22107000  0.22548000  0.73445000  1
  C  C277  1  0.21946000  0.40361000  0.88161000  1
  C  C278  1  0.21895000  0.81795000  0.89822000  1
  C  C279  1  0.21650000  0.34498000  0.89843000  1
  C  C280  1  0.21173000  0.38852000  0.85585000  1
  C  C281  1  0.20575000  0.27147000  0.88876000  1
  C  C282  1  0.20310000  0.83317000  0.84589000  1
  C  C283  1  0.20084000  0.31430000  0.84608000  1
  C  C284  1  0.20011000  0.87622000  0.88865000  1
  C  C285  1  0.19796000  0.25623000  0.86273000  1
  C  C286  1  0.19522000  0.71065000  0.01027000  1
  C  C287  1  0.19479000  0.43177000  0.01029000  1
  C  C288  1  0.19427000  0.84103000  0.81958000  1
  C  C289  1  0.19248000  0.29878000  0.81971000  1
  C  C290  1  0.19230000  0.88369000  0.86291000  1
  C  C291  1  0.18630000  0.84840000  0.79767000  1
  C  C292  1  0.18496000  0.28433000  0.79776000  1
  C  C293  1  0.18430000  0.72419000  0.98530000  1
  C  C294  1  0.18345000  0.40666000  0.98537000  1
  C  C295  1  0.17583000  0.85856000  0.77161000  1
  C  C296  1  0.17502000  0.26463000  0.77164000  1
  C  C297  1  0.16459000  0.69277000  0.39019000  1
  C  C298  1  0.16450000  0.42168000  0.39022000  1
  C  C299  1  0.15692000  0.55341000  0.38990000  1
  C  C300  1  0.14944000  0.88461000  0.72218000  1
  C  C301  1  0.14937000  0.21347000  0.72209000  1
  C  C302  1  0.14501000  0.61315000  0.40225000  1
  C  C303  1  0.14495000  0.48177000  0.40227000  1
  C  C304  1  0.13524000  0.63093000  0.02226000  1
  C  C305  1  0.13498000  0.45174000  0.02227000  1
  C  C306  1  0.12043000  0.59961000  0.42723000  1
  C  C307  1  0.12039000  0.47083000  0.42725000  1
  C  C308  1  0.11894000  0.51583000  0.53148000  1
  C  C309  1  0.10879000  0.52944000  0.43975000  1
  C  C310  1  0.10538000  0.80017000  0.75919000  1
  C  C311  1  0.10480000  0.25296000  0.75917000  1
  C  C312  1  0.10364000  0.50818000  0.55640000  1
  C  C313  1  0.09051000  0.81212000  0.73442000  1
  C  C314  1  0.09029000  0.22677000  0.73435000  1
  C  C315  1  0.08962000  0.51995000  0.46594000  1
  C  C316  1  0.07502000  0.51278000  0.48791000  1
  C  C317  1  0.07115000  0.23578000  0.35585000  1
  C  C318  1  0.07098000  0.78496000  0.35593000  1
  C  C319  1  0.05852000  0.50469000  0.51427000  1
  C  C320  1  0.02679000  0.48885000  0.56594000  1
  C  C321  1  0.01029000  0.48014000  0.59231000  1
  C  C322  1  0.01004000  0.75261000  0.72262000  1
  C  C323  1  0.00992000  0.20601000  0.72251000  1
  S  S324  1  0.71882000  0.47519000  0.52857000  1
  S  S325  1  0.70000000  0.44841000  0.21766000  1
  S  S326  1  0.58317000  0.20566000  0.21789000  1
  S  S327  1  0.49923000  0.78494000  0.86053000  1
  S  S328  1  0.37563000  0.78658000  0.55090000  1
  S  S329  1  0.25553000  0.66244000  0.86092000  1
  S  S330  1  0.25053000  0.54266000  0.55169000  1
  S  S331  1  0.18803000  0.13057000  0.88279000  1
  S  S332  1  0.05374000  0.14412000  0.19554000  1
  N  N333  1  0.98812000  0.15668000  0.17707000  1
  N  N334  1  0.76198000  0.52880000  0.23603000  1
  N  N335  1  0.74899000  0.50269000  0.19206000  1
  N  N336  1  0.66701000  0.47538000  0.55415000  1
  N  N337  1  0.65343000  0.48848000  0.51020000  1
  N  N338  1  0.58060000  0.80557000  0.84232000  1
  N  N339  1  0.55375000  0.79221000  0.88627000  1
  N  N340  1  0.52890000  0.19853000  0.19211000  1
  N  N341  1  0.50173000  0.18531000  0.23603000  1
  N  N342  1  0.43644000  0.86776000  0.56916000  1
  N  N343  1  0.42289000  0.84133000  0.52520000  1
  N  N344  1  0.24784000  0.70932000  0.88679000  1
  N  N345  1  0.23430000  0.72221000  0.84231000  1
  N  N346  1  0.20146000  0.20864000  0.90160000  1
  N  N347  1  0.19575000  0.53440000  0.52593000  1
  N  N348  1  0.18808000  0.18253000  0.85711000  1
  N  N349  1  0.16875000  0.52087000  0.56986000  1
  N  N350  1  0.00128000  0.14367000  0.22105000  1
  O  O351  1  0.99510000  0.76480000  0.70161000  1
  O  O352  1  0.99501000  0.17896000  0.70150000  1
  O  O353  1  0.95920000  0.69444000  0.73474000  1
  O  O354  1  0.95909000  0.21337000  0.73462000  1
  O  O355  1  0.93652000  0.37442000  0.03457000  1
  O  O356  1  0.93644000  0.50981000  0.03444000  1
  O  O357  1  0.92625000  0.62729000  0.67656000  1
  O  O358  1  0.92613000  0.24772000  0.67646000  1
  O  O359  1  0.88978000  0.55405000  0.71098000  1
  O  O360  1  0.88972000  0.28446000  0.71090000  1
  O  O361  1  0.86061000  0.76677000  0.70074000  1
  O  O362  1  0.86052000  0.04259000  0.70068000  1
  O  O363  1  0.82376000  0.69342000  0.73520000  1
  O  O364  1  0.82366000  0.07912000  0.73513000  1
  O  O365  1  0.81296000  0.94909000  0.37769000  1
  O  O366  1  0.81285000  0.81351000  0.37777000  1
  O  O367  1  0.79197000  0.62872000  0.67638000  1
  O  O368  1  0.79183000  0.11186000  0.67630000  1
  O  O369  1  0.75471000  0.55534000  0.71081000  1
  O  O370  1  0.75463000  0.14804000  0.71073000  1
  O  O371  1  0.73911000  0.91178000  0.34329000  1
  O  O372  1  0.73894000  0.77673000  0.34339000  1
  O  O373  1  0.67557000  0.74536000  0.40244000  1
  O  O374  1  0.67557000  0.88012000  0.40239000  1
  O  O375  1  0.66278000  0.10061000  0.03454000  1
  O  O376  1  0.66265000  0.51001000  0.03429000  1
  O  O377  1  0.62559000  0.02650000  0.06889000  1
  O  O378  1  0.62548000  0.54689000  0.06865000  1
  O  O379  1  0.60169000  0.84344000  0.36799000  1
  O  O380  1  0.60166000  0.70804000  0.36805000  1
  O  O381  1  0.59365000  0.96350000  0.00963000  1
  O  O382  1  0.59336000  0.57809000  0.00948000  1
  O  O383  1  0.55703000  0.88938000  0.04397000  1
  O  O384  1  0.55688000  0.61558000  0.04385000  1
  O  O385  1  0.52743000  0.10082000  0.03459000  1
  O  O386  1  0.52731000  0.37453000  0.03446000  1
  O  O387  1  0.49090000  0.02683000  0.06896000  1
  O  O388  1  0.49082000  0.41208000  0.06882000  1
  O  O389  1  0.47941000  0.28163000  0.71084000  1
  O  O390  1  0.47934000  0.14635000  0.71083000  1
  O  O391  1  0.45889000  0.96344000  0.00985000  1
  O  O392  1  0.45863000  0.44314000  0.00970000  1
  O  O393  1  0.42166000  0.88941000  0.04420000  1
  O  O394  1  0.42154000  0.48007000  0.04406000  1
  O  O395  1  0.40598000  0.24460000  0.67636000  1
  O  O396  1  0.40584000  0.10983000  0.67636000  1
  O  O397  1  0.34157000  0.07744000  0.73526000  1
  O  O398  1  0.34144000  0.21264000  0.73522000  1
  O  O399  1  0.32783000  0.43423000  0.36809000  1
  O  O400  1  0.32780000  0.84349000  0.36801000  1
  O  O401  1  0.29071000  0.88040000  0.40237000  1
  O  O402  1  0.29066000  0.36016000  0.40244000  1
  O  O403  1  0.26805000  0.04039000  0.70080000  1
  O  O404  1  0.26799000  0.17624000  0.70075000  1
  O  O405  1  0.25877000  0.29698000  0.34332000  1
  O  O406  1  0.25862000  0.91166000  0.34325000  1
  O  O407  1  0.22217000  0.22292000  0.37767000  1
  O  O408  1  0.22215000  0.94915000  0.37763000  1
  O  O409  1  0.19253000  0.70809000  0.36824000  1
  O  O410  1  0.19249000  0.43431000  0.36828000  1
  O  O411  1  0.15605000  0.74562000  0.40261000  1
  O  O412  1  0.15592000  0.36028000  0.40264000  1
  O  O413  1  0.14783000  0.61549000  0.04420000  1
  O  O414  1  0.14768000  0.47998000  0.04418000  1
  O  O415  1  0.12391000  0.29710000  0.34340000  1
  O  O416  1  0.12374000  0.77650000  0.34344000  1
  O  O417  1  0.08672000  0.22303000  0.37775000  1
  O  O418  1  0.08669000  0.81349000  0.37780000  1
  O  O419  1  0.07396000  0.57811000  0.00980000  1
  O  O420  1  0.07370000  0.44322000  0.00981000  1
  O  O421  1  0.01046000  0.41171000  0.06895000  1
  O  O422  1  0.01029000  0.54645000  0.06884000  1
