# generated using pymatgen
data_Co2H18C24N4O9
_symmetry_space_group_name_H-M   'P 1'
_cell_length_a   11.26900000
_cell_length_b   13.38200000
_cell_length_c   25.59200000
_cell_angle_alpha   90.00000000
_cell_angle_beta   90.00000000
_cell_angle_gamma   90.00000000
_symmetry_Int_Tables_number   1
_chemical_formula_structural   Co2H18C24N4O9
_chemical_formula_sum   'Co8 H72 C96 N16 O36'
_cell_volume   3859.31859074
_cell_formula_units_Z   4
loop_
 _symmetry_equiv_pos_site_id
 _symmetry_equiv_pos_as_xyz
  1  'x, y, z'
loop_
 _atom_site_type_symbol
 _atom_site_label
 _atom_site_symmetry_multiplicity
 _atom_site_fract_x
 _atom_site_fract_y
 _atom_site_fract_z
 _atom_site_occupancy
  Co  Co0  1  0.08290000  0.44008000  0.86345000  1
  Co  Co1  1  0.17142000  0.05968000  0.57886000  1
  Co  Co2  1  0.32858000  0.94032000  0.07886000  1
  Co  Co3  1  0.41710000  0.55992000  0.36345000  1
  Co  Co4  1  0.58290000  0.05992000  0.13655000  1
  Co  Co5  1  0.67142000  0.44032000  0.42114000  1
  Co  Co6  1  0.82858000  0.55968000  0.92114000  1
  Co  Co7  1  0.91710000  0.94008000  0.63655000  1
  H  H8  1  0.00340000  0.18600000  0.16780000  1
  H  H9  1  0.02180000  0.38520000  0.34160000  1
  H  H10  1  0.03110000  0.61390000  0.50330000  1
  H  H11  1  0.04390000  0.64710000  0.05950000  1
  H  H12  1  0.05560000  0.75140000  0.66550000  1
  H  H13  1  0.06970000  0.99430000  0.04490000  1
  H  H14  1  0.07880000  0.63820000  0.73380000  1
  H  H15  1  0.10820000  0.87130000  0.58760000  1
  H  H16  1  0.12290000  0.91380000  0.49050000  1
  H  H17  1  0.13240000  0.31310000  0.67700000  1
  H  H18  1  0.14440000  0.42450000  0.74680000  1
  H  H19  1  0.14680000  0.77290000  0.10220000  1
  H  H20  1  0.14830000  0.18760000  0.48200000  1
  H  H21  1  0.14930000  0.90910000  0.64410000  1
  H  H22  1  0.20270000  0.69470000  0.33860000  1
  H  H23  1  0.21230000  0.79150000  0.44000000  1
  H  H24  1  0.22650000  0.40100000  0.34360000  1
  H  H25  1  0.23820000  0.31170000  0.43710000  1
  H  H26  1  0.26180000  0.68830000  0.93710000  1
  H  H27  1  0.27350000  0.59900000  0.84360000  1
  H  H28  1  0.28770000  0.20850000  0.94000000  1
  H  H29  1  0.29730000  0.30530000  0.83860000  1
  H  H30  1  0.35070000  0.09090000  0.14410000  1
  H  H31  1  0.35170000  0.81240000  0.98200000  1
  H  H32  1  0.35320000  0.22710000  0.60220000  1
  H  H33  1  0.35560000  0.57550000  0.24680000  1
  H  H34  1  0.36760000  0.68690000  0.17700000  1
  H  H35  1  0.37710000  0.08620000  0.99050000  1
  H  H36  1  0.39180000  0.12870000  0.08760000  1
  H  H37  1  0.42120000  0.36180000  0.23380000  1
  H  H38  1  0.43030000  0.00570000  0.54490000  1
  H  H39  1  0.44440000  0.24860000  0.16550000  1
  H  H40  1  0.45610000  0.35290000  0.55950000  1
  H  H41  1  0.46890000  0.38610000  0.00330000  1
  H  H42  1  0.47820000  0.61480000  0.84160000  1
  H  H43  1  0.49660000  0.81400000  0.66780000  1
  H  H44  1  0.50340000  0.31400000  0.83220000  1
  H  H45  1  0.52180000  0.11480000  0.65840000  1
  H  H46  1  0.53110000  0.88610000  0.49670000  1
  H  H47  1  0.54390000  0.85290000  0.94050000  1
  H  H48  1  0.55560000  0.74860000  0.33450000  1
  H  H49  1  0.56970000  0.50570000  0.95510000  1
  H  H50  1  0.57880000  0.86180000  0.26620000  1
  H  H51  1  0.60820000  0.62870000  0.41240000  1
  H  H52  1  0.62290000  0.58620000  0.50950000  1
  H  H53  1  0.63240000  0.18690000  0.32300000  1
  H  H54  1  0.64440000  0.07550000  0.25320000  1
  H  H55  1  0.64680000  0.72710000  0.89780000  1
  H  H56  1  0.64830000  0.31240000  0.51800000  1
  H  H57  1  0.64930000  0.59090000  0.35590000  1
  H  H58  1  0.70270000  0.80530000  0.66140000  1
  H  H59  1  0.71230000  0.70850000  0.56000000  1
  H  H60  1  0.72650000  0.09900000  0.65640000  1
  H  H61  1  0.73820000  0.18830000  0.56290000  1
  H  H62  1  0.76180000  0.81170000  0.06290000  1
  H  H63  1  0.77350000  0.90100000  0.15640000  1
  H  H64  1  0.78770000  0.29150000  0.06000000  1
  H  H65  1  0.79730000  0.19470000  0.16140000  1
  H  H66  1  0.85070000  0.40910000  0.85590000  1
  H  H67  1  0.85170000  0.68760000  0.01800000  1
  H  H68  1  0.85320000  0.27290000  0.39780000  1
  H  H69  1  0.85560000  0.92450000  0.75320000  1
  H  H70  1  0.86760000  0.81310000  0.82300000  1
  H  H71  1  0.87710000  0.41380000  0.00950000  1
  H  H72  1  0.89180000  0.37130000  0.91240000  1
  H  H73  1  0.92120000  0.13820000  0.76620000  1
  H  H74  1  0.93030000  0.49430000  0.45510000  1
  H  H75  1  0.94440000  0.25140000  0.83450000  1
  H  H76  1  0.95610000  0.14710000  0.44050000  1
  H  H77  1  0.96890000  0.11390000  0.99670000  1
  H  H78  1  0.97820000  0.88520000  0.15840000  1
  H  H79  1  0.99660000  0.68600000  0.33220000  1
  C  C80  1  0.01420000  0.03400000  0.16009000  1
  C  C81  1  0.01700000  0.76400000  0.69783000  1
  C  C82  1  0.02250000  0.13447000  0.67211000  1
  C  C83  1  0.02710000  0.21230000  0.71512000  1
  C  C84  1  0.03040000  0.69570000  0.73831000  1
  C  C85  1  0.04190000  0.62660000  0.33642000  1
  C  C86  1  0.05310000  0.11040000  0.99510000  1
  C  C87  1  0.05640000  0.25980000  0.93440000  1
  C  C88  1  0.05690000  0.44980000  0.34143000  1
  C  C89  1  0.07480000  0.57516000  0.96130000  1
  C  C90  1  0.09320000  0.29894000  0.70903000  1
  C  C91  1  0.10050000  0.36450000  0.75099000  1
  C  C92  1  0.10770000  0.68010000  0.04249000  1
  C  C93  1  0.11390000  0.03950000  0.02387000  1
  C  C94  1  0.11650000  0.17690000  0.96368000  1
  C  C95  1  0.14170000  0.65260000  0.99291000  1
  C  C96  1  0.14760000  0.02840000  0.15433000  1
  C  C97  1  0.16530000  0.63110000  0.33925000  1
  C  C98  1  0.16820000  0.75690000  0.06728000  1
  C  C99  1  0.17900000  0.45960000  0.34273000  1
  C  C100  1  0.20680000  0.90680000  0.49200000  1
  C  C101  1  0.21330000  0.22090000  0.49800000  1
  C  C102  1  0.23450000  0.70480000  0.97112000  1
  C  C103  1  0.24100000  0.16630000  0.96164000  1
  C  C104  1  0.25900000  0.83370000  0.46164000  1
  C  C105  1  0.26550000  0.29520000  0.47112000  1
  C  C106  1  0.28670000  0.77910000  0.99800000  1
  C  C107  1  0.29320000  0.09320000  0.99200000  1
  C  C108  1  0.32100000  0.54040000  0.84273000  1
  C  C109  1  0.33180000  0.24310000  0.56728000  1
  C  C110  1  0.33470000  0.36890000  0.83925000  1
  C  C111  1  0.35240000  0.97160000  0.65433000  1
  C  C112  1  0.35830000  0.34740000  0.49291000  1
  C  C113  1  0.38350000  0.82310000  0.46368000  1
  C  C114  1  0.38610000  0.96050000  0.52387000  1
  C  C115  1  0.39230000  0.31990000  0.54249000  1
  C  C116  1  0.39950000  0.63550000  0.25099000  1
  C  C117  1  0.40680000  0.70106000  0.20903000  1
  C  C118  1  0.42520000  0.42484000  0.46130000  1
  C  C119  1  0.44310000  0.55020000  0.84143000  1
  C  C120  1  0.44360000  0.74020000  0.43440000  1
  C  C121  1  0.44690000  0.88960000  0.49510000  1
  C  C122  1  0.45810000  0.37340000  0.83642000  1
  C  C123  1  0.46960000  0.30430000  0.23831000  1
  C  C124  1  0.47290000  0.78770000  0.21512000  1
  C  C125  1  0.47750000  0.86553000  0.17211000  1
  C  C126  1  0.48300000  0.23600000  0.19783000  1
  C  C127  1  0.48580000  0.96600000  0.66009000  1
  C  C128  1  0.51420000  0.46600000  0.83991000  1
  C  C129  1  0.51700000  0.73600000  0.30217000  1
  C  C130  1  0.52250000  0.36553000  0.32789000  1
  C  C131  1  0.52710000  0.28770000  0.28488000  1
  C  C132  1  0.53040000  0.80430000  0.26169000  1
  C  C133  1  0.54190000  0.87340000  0.66358000  1
  C  C134  1  0.55310000  0.38960000  0.00490000  1
  C  C135  1  0.55640000  0.24020000  0.06560000  1
  C  C136  1  0.55690000  0.05020000  0.65857000  1
  C  C137  1  0.57480000  0.92484000  0.03870000  1
  C  C138  1  0.59320000  0.20106000  0.29097000  1
  C  C139  1  0.60050000  0.13550000  0.24901000  1
  C  C140  1  0.60770000  0.81990000  0.95751000  1
  C  C141  1  0.61390000  0.46050000  0.97613000  1
  C  C142  1  0.61650000  0.32310000  0.03632000  1
  C  C143  1  0.64170000  0.84740000  0.00709000  1
  C  C144  1  0.64760000  0.47160000  0.84567000  1
  C  C145  1  0.66530000  0.86890000  0.66075000  1
  C  C146  1  0.66820000  0.74310000  0.93272000  1
  C  C147  1  0.67900000  0.04040000  0.65727000  1
  C  C148  1  0.70680000  0.59320000  0.50800000  1
  C  C149  1  0.71330000  0.27910000  0.50200000  1
  C  C150  1  0.73450000  0.79520000  0.02888000  1
  C  C151  1  0.74100000  0.33370000  0.03836000  1
  C  C152  1  0.75900000  0.66630000  0.53836000  1
  C  C153  1  0.76550000  0.20480000  0.52888000  1
  C  C154  1  0.78670000  0.72090000  0.00200000  1
  C  C155  1  0.79320000  0.40680000  0.00800000  1
  C  C156  1  0.82100000  0.95960000  0.15727000  1
  C  C157  1  0.83180000  0.25690000  0.43272000  1
  C  C158  1  0.83470000  0.13110000  0.16075000  1
  C  C159  1  0.85240000  0.52840000  0.34567000  1
  C  C160  1  0.85830000  0.15260000  0.50709000  1
  C  C161  1  0.88350000  0.67690000  0.53632000  1
  C  C162  1  0.88610000  0.53950000  0.47613000  1
  C  C163  1  0.89230000  0.18010000  0.45751000  1
  C  C164  1  0.89950000  0.86450000  0.74901000  1
  C  C165  1  0.90680000  0.79894000  0.79097000  1
  C  C166  1  0.92520000  0.07516000  0.53870000  1
  C  C167  1  0.94310000  0.94980000  0.15857000  1
  C  C168  1  0.94360000  0.75980000  0.56560000  1
  C  C169  1  0.94690000  0.61040000  0.50490000  1
  C  C170  1  0.95810000  0.12660000  0.16358000  1
  C  C171  1  0.96960000  0.19570000  0.76169000  1
  C  C172  1  0.97290000  0.71230000  0.78488000  1
  C  C173  1  0.97750000  0.63447000  0.82789000  1
  C  C174  1  0.98300000  0.26400000  0.80217000  1
  C  C175  1  0.98580000  0.53400000  0.33991000  1
  N  N176  1  0.04818000  0.34664000  0.79716000  1
  N  N177  1  0.23277000  0.03176000  0.02337000  1
  N  N178  1  0.23297000  0.54963000  0.34279000  1
  N  N179  1  0.24580000  0.19088000  0.54497000  1
  N  N180  1  0.25420000  0.80912000  0.04497000  1
  N  N181  1  0.26703000  0.45037000  0.84279000  1
  N  N182  1  0.26723000  0.96824000  0.52337000  1
  N  N183  1  0.45182000  0.65336000  0.29716000  1
  N  N184  1  0.54818000  0.15336000  0.20284000  1
  N  N185  1  0.73277000  0.46824000  0.97663000  1
  N  N186  1  0.73297000  0.95037000  0.65721000  1
  N  N187  1  0.74580000  0.30912000  0.45503000  1
  N  N188  1  0.75420000  0.69088000  0.95503000  1
  N  N189  1  0.76703000  0.04963000  0.15721000  1
  N  N190  1  0.76723000  0.53176000  0.47663000  1
  N  N191  1  0.95182000  0.84664000  0.70284000  1
  O  O192  1  0.03282000  0.06269000  0.52590000  1
  O  O193  1  0.04476000  0.56183000  0.81889000  1
  O  O194  1  0.05366000  0.76764000  0.56125000  1
  O  O195  1  0.08461000  0.15008000  0.63236000  1
  O  O196  1  0.10105000  0.92669000  0.61307000  1
  O  O197  1  0.12286000  0.31428000  0.90667000  1
  O  O198  1  0.13003000  0.53362000  0.92530000  1
  O  O199  1  0.18534000  0.95151000  0.13086000  1
  O  O200  1  0.20809000  0.09881000  0.17133000  1
  O  O201  1  0.29191000  0.90119000  0.67133000  1
  O  O202  1  0.31466000  0.04849000  0.63086000  1
  O  O203  1  0.36997000  0.46638000  0.42530000  1
  O  O204  1  0.37714000  0.68572000  0.40667000  1
  O  O205  1  0.39895000  0.07331000  0.11307000  1
  O  O206  1  0.41539000  0.84992000  0.13236000  1
  O  O207  1  0.44634000  0.23236000  0.06125000  1
  O  O208  1  0.45524000  0.43817000  0.31889000  1
  O  O209  1  0.46718000  0.93731000  0.02590000  1
  O  O210  1  0.53282000  0.43731000  0.47410000  1
  O  O211  1  0.54476000  0.93817000  0.18111000  1
  O  O212  1  0.55366000  0.73236000  0.43875000  1
  O  O213  1  0.58461000  0.34992000  0.36764000  1
  O  O214  1  0.60105000  0.57331000  0.38693000  1
  O  O215  1  0.62286000  0.18572000  0.09333000  1
  O  O216  1  0.63003000  0.96638000  0.07470000  1
  O  O217  1  0.68534000  0.54849000  0.86914000  1
  O  O218  1  0.70809000  0.40119000  0.82867000  1
  O  O219  1  0.79191000  0.59881000  0.32867000  1
  O  O220  1  0.81466000  0.45151000  0.36914000  1
  O  O221  1  0.86997000  0.03362000  0.57470000  1
  O  O222  1  0.87714000  0.81428000  0.59333000  1
  O  O223  1  0.89895000  0.42669000  0.88693000  1
  O  O224  1  0.91539000  0.65008000  0.86764000  1
  O  O225  1  0.94634000  0.26764000  0.93875000  1
  O  O226  1  0.95524000  0.06183000  0.68111000  1
  O  O227  1  0.96718000  0.56269000  0.97410000  1
