# generated using pymatgen
data_Eu2Cu7H28C42I6(NO2)7
_symmetry_space_group_name_H-M   'P 1'
_cell_length_a   7.03280000
_cell_length_b   18.15800000
_cell_length_c   24.66000000
_cell_angle_alpha   90.00000000
_cell_angle_beta   90.00000000
_cell_angle_gamma   99.54000000
_symmetry_Int_Tables_number   1
_chemical_formula_structural   Eu2Cu7H28C42I6(NO2)7
_chemical_formula_sum   'Eu4 Cu14 H56 C84 I12 N14 O28'
_cell_volume   3105.56910725
_cell_formula_units_Z   2
loop_
 _symmetry_equiv_pos_site_id
 _symmetry_equiv_pos_as_xyz
  1  'x, y, z'
loop_
 _atom_site_type_symbol
 _atom_site_label
 _atom_site_symmetry_multiplicity
 _atom_site_fract_x
 _atom_site_fract_y
 _atom_site_fract_z
 _atom_site_occupancy
  Eu  Eu0  1  0.21929000  0.01571000  0.09829000  1
  Eu  Eu1  1  0.21929000  0.01571000  0.40171000  1
  Eu  Eu2  1  0.78071000  0.98429000  0.59829000  1
  Eu  Eu3  1  0.78071000  0.98429000  0.90171000  1
  Cu  Cu4  1  0.17440000  0.44033000  0.58070000  1
  Cu  Cu5  1  0.17440000  0.44033000  0.91930000  1
  Cu  Cu6  1  0.22880000  0.43418000  0.75000000  1
  Cu  Cu7  1  0.24840000  0.55385000  0.68480000  1
  Cu  Cu8  1  0.24840000  0.55385000  0.81520000  1
  Cu  Cu9  1  0.37900000  0.54442000  0.00767000  1
  Cu  Cu10  1  0.37900000  0.54442000  0.49233000  1
  Cu  Cu11  1  0.62100000  0.45558000  0.50767000  1
  Cu  Cu12  1  0.62100000  0.45558000  0.99233000  1
  Cu  Cu13  1  0.75160000  0.44615000  0.18480000  1
  Cu  Cu14  1  0.75160000  0.44615000  0.31520000  1
  Cu  Cu15  1  0.77120000  0.56582000  0.25000000  1
  Cu  Cu16  1  0.82560000  0.55967000  0.08070000  1
  Cu  Cu17  1  0.82560000  0.55967000  0.41930000  1
  H  H18  1  0.09450000  0.16570000  0.62150000  1
  H  H19  1  0.09450000  0.16570000  0.87850000  1
  H  H20  1  0.09930000  0.29130000  0.63780000  1
  H  H21  1  0.09930000  0.29130000  0.86220000  1
  H  H22  1  0.11320000  0.39240000  0.15360000  1
  H  H23  1  0.11320000  0.39240000  0.34640000  1
  H  H24  1  0.11380000  0.26170000  0.75000000  1
  H  H25  1  0.19330000  0.21690000  0.03710000  1
  H  H26  1  0.19330000  0.21690000  0.46290000  1
  H  H27  1  0.19870000  0.34240000  0.01630000  1
  H  H28  1  0.19870000  0.34240000  0.48370000  1
  H  H29  1  0.22270000  0.71060000  0.25000000  1
  H  H30  1  0.22570000  0.28050000  0.13690000  1
  H  H31  1  0.22570000  0.28050000  0.36310000  1
  H  H32  1  0.25610000  0.15880000  0.75000000  1
  H  H33  1  0.29140000  0.80300000  0.52810000  1
  H  H34  1  0.29140000  0.80300000  0.97190000  1
  H  H35  1  0.30530000  0.83140000  0.66110000  1
  H  H36  1  0.30530000  0.83140000  0.83890000  1
  H  H37  1  0.31840000  0.68290000  0.54870000  1
  H  H38  1  0.31840000  0.68290000  0.95130000  1
  H  H39  1  0.37940000  0.60150000  0.25000000  1
  H  H40  1  0.39070000  0.76130000  0.12940000  1
  H  H41  1  0.39070000  0.76130000  0.37060000  1
  H  H42  1  0.40580000  0.71880000  0.67960000  1
  H  H43  1  0.40580000  0.71880000  0.82040000  1
  H  H44  1  0.42180000  0.64180000  0.10530000  1
  H  H45  1  0.42180000  0.64180000  0.39470000  1
  H  H46  1  0.57820000  0.35820000  0.60530000  1
  H  H47  1  0.57820000  0.35820000  0.89470000  1
  H  H48  1  0.59420000  0.28120000  0.17960000  1
  H  H49  1  0.59420000  0.28120000  0.32040000  1
  H  H50  1  0.60930000  0.23870000  0.62940000  1
  H  H51  1  0.60930000  0.23870000  0.87060000  1
  H  H52  1  0.62060000  0.39850000  0.75000000  1
  H  H53  1  0.68160000  0.31710000  0.04870000  1
  H  H54  1  0.68160000  0.31710000  0.45130000  1
  H  H55  1  0.69470000  0.16860000  0.16110000  1
  H  H56  1  0.69470000  0.16860000  0.33890000  1
  H  H57  1  0.70860000  0.19700000  0.02810000  1
  H  H58  1  0.70860000  0.19700000  0.47190000  1
  H  H59  1  0.74390000  0.84120000  0.25000000  1
  H  H60  1  0.77430000  0.71950000  0.63690000  1
  H  H61  1  0.77430000  0.71950000  0.86310000  1
  H  H62  1  0.77730000  0.28940000  0.75000000  1
  H  H63  1  0.80130000  0.65760000  0.51630000  1
  H  H64  1  0.80130000  0.65760000  0.98370000  1
  H  H65  1  0.80670000  0.78310000  0.53710000  1
  H  H66  1  0.80670000  0.78310000  0.96290000  1
  H  H67  1  0.88620000  0.73830000  0.25000000  1
  H  H68  1  0.88680000  0.60760000  0.65360000  1
  H  H69  1  0.88680000  0.60760000  0.84640000  1
  H  H70  1  0.90070000  0.70870000  0.13780000  1
  H  H71  1  0.90070000  0.70870000  0.36220000  1
  H  H72  1  0.90550000  0.83430000  0.12150000  1
  H  H73  1  0.90550000  0.83430000  0.37850000  1
  C  C74  1  0.02400000  0.78540000  0.64800000  1
  C  C75  1  0.02400000  0.78540000  0.85200000  1
  C  C76  1  0.02500000  0.34670000  0.15560000  1
  C  C77  1  0.02500000  0.34670000  0.34440000  1
  C  C78  1  0.05100000  0.14300000  0.13730000  1
  C  C79  1  0.05100000  0.14300000  0.36270000  1
  C  C80  1  0.09400000  0.27940000  0.14550000  1
  C  C81  1  0.09400000  0.27940000  0.35450000  1
  C  C82  1  0.11570000  0.20090000  0.59270000  1
  C  C83  1  0.11570000  0.20090000  0.90730000  1
  C  C84  1  0.12100000  0.27620000  0.60170000  1
  C  C85  1  0.12100000  0.27620000  0.89830000  1
  C  C86  1  0.14090000  0.09670000  0.52640000  1
  C  C87  1  0.14090000  0.09670000  0.97360000  1
  C  C88  1  0.14250000  0.17930000  0.54050000  1
  C  C89  1  0.14250000  0.17930000  0.95950000  1
  C  C90  1  0.17440000  0.23180000  0.00080000  1
  C  C91  1  0.17440000  0.23180000  0.49920000  1
  C  C92  1  0.17820000  0.30640000  0.51190000  1
  C  C93  1  0.17820000  0.30640000  0.98810000  1
  C  C94  1  0.21600000  0.78600000  0.65990000  1
  C  C95  1  0.21600000  0.78600000  0.84010000  1
  C  C96  1  0.25100000  0.26820000  0.75000000  1
  C  C97  1  0.27400000  0.71780000  0.67020000  1
  C  C98  1  0.27400000  0.71780000  0.82980000  1
  C  C99  1  0.32020000  0.77080000  0.00010000  1
  C  C100  1  0.32020000  0.77080000  0.49990000  1
  C  C101  1  0.32600000  0.87670000  0.06710000  1
  C  C102  1  0.32600000  0.87670000  0.43290000  1
  C  C103  1  0.33490000  0.69930000  0.51210000  1
  C  C104  1  0.33490000  0.69930000  0.98790000  1
  C  C105  1  0.33600000  0.20640000  0.75000000  1
  C  C106  1  0.34580000  0.79800000  0.05170000  1
  C  C107  1  0.34580000  0.79800000  0.44830000  1
  C  C108  1  0.35900000  0.71650000  0.25000000  1
  C  C109  1  0.36200000  0.85330000  0.25000000  1
  C  C110  1  0.37900000  0.74630000  0.09250000  1
  C  C111  1  0.37900000  0.74630000  0.40750000  1
  C  C112  1  0.39450000  0.67560000  0.07810000  1
  C  C113  1  0.39450000  0.67560000  0.42190000  1
  C  C114  1  0.45300000  0.65040000  0.25000000  1
  C  C115  1  0.47200000  0.79040000  0.25000000  1
  C  C116  1  0.52800000  0.20960000  0.75000000  1
  C  C117  1  0.54700000  0.34960000  0.75000000  1
  C  C118  1  0.60550000  0.32440000  0.57810000  1
  C  C119  1  0.60550000  0.32440000  0.92190000  1
  C  C120  1  0.62100000  0.25370000  0.59250000  1
  C  C121  1  0.62100000  0.25370000  0.90750000  1
  C  C122  1  0.63800000  0.14670000  0.75000000  1
  C  C123  1  0.64100000  0.28350000  0.75000000  1
  C  C124  1  0.65420000  0.20200000  0.55170000  1
  C  C125  1  0.65420000  0.20200000  0.94830000  1
  C  C126  1  0.66400000  0.79360000  0.25000000  1
  C  C127  1  0.66510000  0.30070000  0.01210000  1
  C  C128  1  0.66510000  0.30070000  0.48790000  1
  C  C129  1  0.67400000  0.12330000  0.56710000  1
  C  C130  1  0.67400000  0.12330000  0.93290000  1
  C  C131  1  0.67980000  0.22920000  0.50010000  1
  C  C132  1  0.67980000  0.22920000  0.99990000  1
  C  C133  1  0.72600000  0.28220000  0.17020000  1
  C  C134  1  0.72600000  0.28220000  0.32980000  1
  C  C135  1  0.74900000  0.73180000  0.25000000  1
  C  C136  1  0.78400000  0.21400000  0.15990000  1
  C  C137  1  0.78400000  0.21400000  0.34010000  1
  C  C138  1  0.82180000  0.69360000  0.01190000  1
  C  C139  1  0.82180000  0.69360000  0.48810000  1
  C  C140  1  0.82560000  0.76820000  0.50080000  1
  C  C141  1  0.82560000  0.76820000  0.99920000  1
  C  C142  1  0.85750000  0.82070000  0.04050000  1
  C  C143  1  0.85750000  0.82070000  0.45950000  1
  C  C144  1  0.85910000  0.90330000  0.02640000  1
  C  C145  1  0.85910000  0.90330000  0.47360000  1
  C  C146  1  0.87900000  0.72380000  0.10170000  1
  C  C147  1  0.87900000  0.72380000  0.39830000  1
  C  C148  1  0.88430000  0.79910000  0.09270000  1
  C  C149  1  0.88430000  0.79910000  0.40730000  1
  C  C150  1  0.90600000  0.72060000  0.64550000  1
  C  C151  1  0.90600000  0.72060000  0.85450000  1
  C  C152  1  0.94900000  0.85700000  0.63730000  1
  C  C153  1  0.94900000  0.85700000  0.86270000  1
  C  C154  1  0.97500000  0.65330000  0.65560000  1
  C  C155  1  0.97500000  0.65330000  0.84440000  1
  C  C156  1  0.97600000  0.21460000  0.14800000  1
  C  C157  1  0.97600000  0.21460000  0.35200000  1
  I  I158  1  0.00000000  0.50000000  0.00000000  1
  I  I159  1  0.00000000  0.50000000  0.50000000  1
  I  I160  1  0.02427000  0.55690000  0.17022000  1
  I  I161  1  0.02427000  0.55690000  0.32978000  1
  I  I162  1  0.46789000  0.44153000  0.25000000  1
  I  I163  1  0.48960000  0.47047000  0.09017000  1
  I  I164  1  0.48960000  0.47047000  0.40983000  1
  I  I165  1  0.51040000  0.52953000  0.59017000  1
  I  I166  1  0.51040000  0.52953000  0.90983000  1
  I  I167  1  0.53211000  0.55847000  0.75000000  1
  I  I168  1  0.97573000  0.44310000  0.67022000  1
  I  I169  1  0.97573000  0.44310000  0.82978000  1
  N  N170  1  0.15340000  0.33000000  0.56370000  1
  N  N171  1  0.15340000  0.33000000  0.93630000  1
  N  N172  1  0.16230000  0.65120000  0.66800000  1
  N  N173  1  0.16230000  0.65120000  0.83200000  1
  N  N174  1  0.35000000  0.33850000  0.75000000  1
  N  N175  1  0.37200000  0.65120000  0.02580000  1
  N  N176  1  0.37200000  0.65120000  0.47420000  1
  N  N177  1  0.62800000  0.34880000  0.52580000  1
  N  N178  1  0.62800000  0.34880000  0.97420000  1
  N  N179  1  0.65000000  0.66150000  0.25000000  1
  N  N180  1  0.83770000  0.34880000  0.16800000  1
  N  N181  1  0.83770000  0.34880000  0.33200000  1
  N  N182  1  0.84660000  0.67000000  0.06370000  1
  N  N183  1  0.84660000  0.67000000  0.43630000  1
  O  O184  1  0.06200000  0.91560000  0.62850000  1
  O  O185  1  0.06200000  0.91560000  0.87150000  1
  O  O186  1  0.07400000  0.04980000  0.56290000  1
  O  O187  1  0.07400000  0.04980000  0.93710000  1
  O  O188  1  0.18690000  0.84740000  0.25000000  1
  O  O189  1  0.20790000  0.08320000  0.01830000  1
  O  O190  1  0.20790000  0.08320000  0.48170000  1
  O  O191  1  0.23210000  0.14690000  0.13570000  1
  O  O192  1  0.23210000  0.14690000  0.36430000  1
  O  O193  1  0.30310000  0.92300000  0.02970000  1
  O  O194  1  0.30310000  0.92300000  0.47030000  1
  O  O195  1  0.33130000  0.89640000  0.11550000  1
  O  O196  1  0.33130000  0.89640000  0.38450000  1
  O  O197  1  0.47300000  0.91950000  0.25000000  1
  O  O198  1  0.52700000  0.08050000  0.75000000  1
  O  O199  1  0.66870000  0.10360000  0.61550000  1
  O  O200  1  0.66870000  0.10360000  0.88450000  1
  O  O201  1  0.69690000  0.07700000  0.52970000  1
  O  O202  1  0.69690000  0.07700000  0.97030000  1
  O  O203  1  0.76790000  0.85310000  0.63570000  1
  O  O204  1  0.76790000  0.85310000  0.86430000  1
  O  O205  1  0.79210000  0.91680000  0.51830000  1
  O  O206  1  0.79210000  0.91680000  0.98170000  1
  O  O207  1  0.81310000  0.15260000  0.75000000  1
  O  O208  1  0.92600000  0.95020000  0.06290000  1
  O  O209  1  0.92600000  0.95020000  0.43710000  1
  O  O210  1  0.93800000  0.08440000  0.12850000  1
  O  O211  1  0.93800000  0.08440000  0.37150000  1
