# generated using pymatgen
data_AgH10(C2N)6
_symmetry_space_group_name_H-M   'P 1'
_cell_length_a   11.25208378
_cell_length_b   11.25208378
_cell_length_c   16.12400000
_cell_angle_alpha   107.76551229
_cell_angle_beta   107.76551229
_cell_angle_gamma   95.00065776
_symmetry_Int_Tables_number   1
_chemical_formula_structural   AgH10(C2N)6
_chemical_formula_sum   'Ag4 H40 C48 N24'
_cell_volume   1814.44856823
_cell_formula_units_Z   4
loop_
 _symmetry_equiv_pos_site_id
 _symmetry_equiv_pos_as_xyz
  1  'x, y, z'
loop_
 _atom_site_type_symbol
 _atom_site_label
 _atom_site_symmetry_multiplicity
 _atom_site_fract_x
 _atom_site_fract_y
 _atom_site_fract_z
 _atom_site_occupancy
  Ag  Ag0  1  0.51867000  0.34079000  0.60442000  1
  Ag  Ag1  1  0.34079000  0.51867000  0.10442000  1
  Ag  Ag2  1  0.48133000  0.65921000  0.39558000  1
  Ag  Ag3  1  0.65921000  0.48133000  0.89558000  1
  C  C4  1  0.70795000  0.15111000  0.59426000  1
  C  C5  1  0.15111000  0.70795000  0.09426000  1
  C  C6  1  0.75295000  0.03965000  0.57356000  1
  C  C7  1  0.03965000  0.75295000  0.07356000  1
  C  C8  1  0.48684000  0.29236000  0.09860000  1
  C  C9  1  0.29236000  0.48684000  0.59860000  1
  C  C10  1  0.43615000  0.32653000  0.96051000  1
  C  C11  1  0.32653000  0.43615000  0.46051000  1
  C  C12  1  0.54260000  0.19220000  0.06730000  1
  C  C13  1  0.19220000  0.54260000  0.56730000  1
  C  C14  1  0.48949000  0.22615000  0.92283000  1
  C  C15  1  0.22615000  0.48949000  0.42283000  1
  C  C16  1  0.54365000  0.15735000  0.97710000  1
  C  C17  1  0.15735000  0.54365000  0.47710000  1
  C  C18  1  0.48563000  0.20023000  0.82700000  1
  C  C19  1  0.20023000  0.48563000  0.32700000  1
  C  C20  1  0.56965000  0.09681000  0.44496000  1
  C  C21  1  0.09681000  0.56965000  0.94496000  1
  C  C22  1  0.70349000  0.95365000  0.48317000  1
  C  C23  1  0.95365000  0.70349000  0.98317000  1
  C  C24  1  0.61028000  0.98340000  0.41734000  1
  C  C25  1  0.98340000  0.61028000  0.91734000  1
  C  C26  1  0.44325000  0.10915000  0.67845000  1
  C  C27  1  0.10915000  0.44325000  0.17845000  1
  C  C28  1  0.55675000  0.89085000  0.32155000  1
  C  C29  1  0.89085000  0.55675000  0.82155000  1
  C  C30  1  0.38972000  0.01660000  0.58266000  1
  C  C31  1  0.01660000  0.38972000  0.08266000  1
  C  C32  1  0.29651000  0.04635000  0.51683000  1
  C  C33  1  0.04635000  0.29651000  0.01683000  1
  C  C34  1  0.43035000  0.90319000  0.55504000  1
  C  C35  1  0.90319000  0.43035000  0.05504000  1
  C  C36  1  0.51437000  0.79977000  0.17300000  1
  C  C37  1  0.79977000  0.51437000  0.67300000  1
  C  C38  1  0.45635000  0.84265000  0.02290000  1
  C  C39  1  0.84265000  0.45635000  0.52290000  1
  C  C40  1  0.51051000  0.77385000  0.07717000  1
  C  C41  1  0.77385000  0.51051000  0.57717000  1
  C  C42  1  0.45740000  0.80780000  0.93270000  1
  C  C43  1  0.80780000  0.45740000  0.43270000  1
  C  C44  1  0.56385000  0.67347000  0.03949000  1
  C  C45  1  0.67347000  0.56385000  0.53949000  1
  C  C46  1  0.51316000  0.70764000  0.90140000  1
  C  C47  1  0.70764000  0.51316000  0.40140000  1
  C  C48  1  0.24705000  0.96035000  0.42644000  1
  C  C49  1  0.96035000  0.24705000  0.92644000  1
  C  C50  1  0.29205000  0.84889000  0.40574000  1
  C  C51  1  0.84889000  0.29205000  0.90574000  1
  H  H52  1  0.74380000  0.21060000  0.65600000  1
  H  H53  1  0.21060000  0.74380000  0.15600000  1
  H  H54  1  0.81660000  0.02220000  0.62020000  1
  H  H55  1  0.02220000  0.81660000  0.12020000  1
  H  H56  1  0.48570000  0.31470000  0.16010000  1
  H  H57  1  0.31470000  0.48570000  0.66010000  1
  H  H58  1  0.39950000  0.37390000  0.92300000  1
  H  H59  1  0.37390000  0.39950000  0.42300000  1
  H  H60  1  0.68630000  0.04970000  0.27200000  1
  H  H61  1  0.04970000  0.68630000  0.77200000  1
  H  H62  1  0.57990000  0.14750000  0.10670000  1
  H  H63  1  0.14750000  0.57990000  0.60670000  1
  H  H64  1  0.58060000  0.08780000  0.95340000  1
  H  H65  1  0.08780000  0.58060000  0.45340000  1
  H  H66  1  0.55500000  0.08100000  0.25000000  1
  H  H67  1  0.08100000  0.55500000  0.75000000  1
  H  H68  1  0.50550000  0.11650000  0.39990000  1
  H  H69  1  0.11650000  0.50550000  0.89990000  1
  H  H70  1  0.73260000  0.87600000  0.46650000  1
  H  H71  1  0.87600000  0.73260000  0.96650000  1
  H  H72  1  0.26740000  0.12400000  0.53350000  1
  H  H73  1  0.12400000  0.26740000  0.03350000  1
  H  H74  1  0.49450000  0.88350000  0.60010000  1
  H  H75  1  0.88350000  0.49450000  0.10010000  1
  H  H76  1  0.44500000  0.91900000  0.75000000  1
  H  H77  1  0.91900000  0.44500000  0.25000000  1
  H  H78  1  0.41940000  0.91220000  0.04660000  1
  H  H79  1  0.91220000  0.41940000  0.54660000  1
  H  H80  1  0.42010000  0.85250000  0.89330000  1
  H  H81  1  0.85250000  0.42010000  0.39330000  1
  H  H82  1  0.31370000  0.95030000  0.72800000  1
  H  H83  1  0.95030000  0.31370000  0.22800000  1
  H  H84  1  0.60050000  0.62610000  0.07700000  1
  H  H85  1  0.62610000  0.60050000  0.57700000  1
  H  H86  1  0.51430000  0.68530000  0.83990000  1
  H  H87  1  0.68530000  0.51430000  0.33990000  1
  H  H88  1  0.18340000  0.97780000  0.37980000  1
  H  H89  1  0.97780000  0.18340000  0.87980000  1
  H  H90  1  0.25620000  0.78940000  0.34400000  1
  H  H91  1  0.78940000  0.25620000  0.84400000  1
  N  N92  1  0.51885000  0.28759000  0.79582000  1
  N  N93  1  0.28759000  0.51885000  0.29582000  1
  N  N94  1  0.61671000  0.18037000  0.53259000  1
  N  N95  1  0.18037000  0.61671000  0.03259000  1
  N  N96  1  0.43391000  0.35983000  0.04698000  1
  N  N97  1  0.35983000  0.43391000  0.54698000  1
  N  N98  1  0.49172000  0.22952000  0.70120000  1
  N  N99  1  0.22952000  0.49172000  0.20120000  1
  N  N100  1  0.60819000  0.02739000  0.23486000  1
  N  N101  1  0.02739000  0.60819000  0.73486000  1
  N  N102  1  0.43993000  0.08597000  0.75621000  1
  N  N103  1  0.08597000  0.43993000  0.25621000  1
  N  N104  1  0.56007000  0.91403000  0.24379000  1
  N  N105  1  0.91403000  0.56007000  0.74379000  1
  N  N106  1  0.39181000  0.97261000  0.76514000  1
  N  N107  1  0.97261000  0.39181000  0.26514000  1
  N  N108  1  0.50828000  0.77048000  0.29880000  1
  N  N109  1  0.77048000  0.50828000  0.79880000  1
  N  N110  1  0.56609000  0.64017000  0.95302000  1
  N  N111  1  0.64017000  0.56609000  0.45302000  1
  N  N112  1  0.38329000  0.81963000  0.46741000  1
  N  N113  1  0.81963000  0.38329000  0.96741000  1
  N  N114  1  0.48115000  0.71241000  0.20418000  1
  N  N115  1  0.71241000  0.48115000  0.70418000  1
