# generated using pymatgen
data_AgH8(CN)2
_symmetry_space_group_name_H-M   'P 1'
_cell_length_a   6.26690000
_cell_length_b   7.40016506
_cell_length_c   7.40016506
_cell_angle_alpha   91.13548679
_cell_angle_beta   107.14735627
_cell_angle_gamma   107.14735627
_symmetry_Int_Tables_number   1
_chemical_formula_structural   AgH8(CN)2
_chemical_formula_sum   'Ag2 H16 C4 N4'
_cell_volume   311.21033825
_cell_formula_units_Z   2
loop_
 _symmetry_equiv_pos_site_id
 _symmetry_equiv_pos_as_xyz
  1  'x, y, z'
loop_
 _atom_site_type_symbol
 _atom_site_label
 _atom_site_symmetry_multiplicity
 _atom_site_fract_x
 _atom_site_fract_y
 _atom_site_fract_z
 _atom_site_occupancy
  Ag  Ag0  1  1.00000000  0.50000000  0.50000000  1
  Ag  Ag1  1  0.50000000  0.50000000  0.50000000  1
  C  C2  1  0.54520000  0.52730000  0.10610000  1
  C  C3  1  0.04520000  0.10610000  0.52730000  1
  C  C4  1  0.45480000  0.47270000  0.89390000  1
  C  C5  1  0.95480000  0.89390000  0.47270000  1
  H  H6  1  0.57320000  0.66410000  0.13290000  1
  H  H7  1  0.07320000  0.13290000  0.66410000  1
  H  H8  1  0.69590000  0.50310000  0.15790000  1
  H  H9  1  0.19590000  0.15790000  0.50310000  1
  H  H10  1  0.23990000  0.44210000  0.15150000  1
  H  H11  1  0.73990000  0.15150000  0.44210000  1
  H  H12  1  0.64270000  0.70500000  0.82120000  1
  H  H13  1  0.14270000  0.82120000  0.70500000  1
  H  H14  1  0.35730000  0.29500000  0.17880000  1
  H  H15  1  0.85730000  0.17880000  0.29500000  1
  H  H16  1  0.76010000  0.55790000  0.84850000  1
  H  H17  1  0.26010000  0.84850000  0.55790000  1
  H  H18  1  0.30410000  0.49690000  0.84210000  1
  H  H19  1  0.80410000  0.84210000  0.49690000  1
  H  H20  1  0.42680000  0.33590000  0.86710000  1
  H  H21  1  0.92680000  0.86710000  0.33590000  1
  N  N22  1  0.38080000  0.42180000  0.20200000  1
  N  N23  1  0.88080000  0.20200000  0.42180000  1
  N  N24  1  0.61920000  0.57820000  0.79800000  1
  N  N25  1  0.11920000  0.79800000  0.57820000  1
