# generated using pymatgen
data_CuH6(C3N2)2
_symmetry_space_group_name_H-M   'P 1'
_cell_length_a   5.38700000
_cell_length_b   16.01210000
_cell_length_c   16.01210496
_cell_angle_alpha   118.75958131
_cell_angle_beta   96.43902758
_cell_angle_gamma   96.43890000
_symmetry_Int_Tables_number   1
_chemical_formula_structural   CuH6(C3N2)2
_chemical_formula_sum   'Cu6 H36 C36 N24'
_cell_volume   1181.07589876
_cell_formula_units_Z   6
loop_
 _symmetry_equiv_pos_site_id
 _symmetry_equiv_pos_as_xyz
  1  'x, y, z'
loop_
 _atom_site_type_symbol
 _atom_site_label
 _atom_site_symmetry_multiplicity
 _atom_site_fract_x
 _atom_site_fract_y
 _atom_site_fract_z
 _atom_site_occupancy
  Cu  Cu0  1  0.61120000  0.21366000  0.42774000  1
  Cu  Cu1  1  0.60246000  0.78592000  0.21366000  1
  Cu  Cu2  1  0.18346000  0.57226000  0.78592000  1
  Cu  Cu3  1  0.81654000  0.42774000  0.21408000  1
  Cu  Cu4  1  0.39754000  0.21408000  0.78634000  1
  Cu  Cu5  1  0.38880000  0.78634000  0.57226000  1
  H  H6  1  0.35325000  0.42251000  0.34617000  1
  H  H7  1  0.10906000  0.50853000  0.08344000  1
  H  H8  1  0.24004000  0.15140000  0.21014000  1
  H  H9  1  0.99292000  0.34617000  0.92366000  1
  H  H10  1  0.73862000  0.25559000  0.65675000  1
  H  H11  1  0.02990000  0.78986000  0.94126000  1
  H  H12  1  0.60052000  0.57490000  0.49146000  1
  H  H13  1  0.22771000  0.87279000  0.11759000  1
  H  H14  1  0.56835000  0.97643000  0.39787000  1
  H  H15  1  0.35492000  0.24481000  0.12722000  1
  H  H16  1  0.08864000  0.05874000  0.84860000  1
  H  H17  1  0.51697000  0.59883000  0.25558000  1
  H  H18  1  0.93075000  0.92366000  0.57749000  1
  H  H19  1  0.11012000  0.88242000  0.75520000  1
  H  H20  1  0.97438000  0.08345000  0.57491000  1
  H  H21  1  0.82951000  0.39787000  0.42144000  1
  H  H22  1  0.40808000  0.57856000  0.97643000  1
  H  H23  1  0.08187000  0.34326000  0.59884000  1
  H  H24  1  0.91813000  0.65674000  0.40116000  1
  H  H25  1  0.59192000  0.42144000  0.02357000  1
  H  H26  1  0.17049000  0.60213000  0.57856000  1
  H  H27  1  0.02562000  0.91655000  0.42509000  1
  H  H28  1  0.88988000  0.11758000  0.24480000  1
  H  H29  1  0.06925000  0.07634000  0.42251000  1
  H  H30  1  0.48303000  0.40117000  0.74442000  1
  H  H31  1  0.91136000  0.94126000  0.15140000  1
  H  H32  1  0.64508000  0.75519000  0.87278000  1
  H  H33  1  0.43165000  0.02357000  0.60213000  1
  H  H34  1  0.77229000  0.12721000  0.88241000  1
  H  H35  1  0.39948000  0.42510000  0.50854000  1
  H  H36  1  0.97010000  0.21014000  0.05874000  1
  H  H37  1  0.26138000  0.74441000  0.34325000  1
  H  H38  1  0.00708000  0.65383000  0.07634000  1
  H  H39  1  0.75996000  0.84860000  0.78986000  1
  H  H40  1  0.89094000  0.49147000  0.91656000  1
  H  H41  1  0.64675000  0.57749000  0.65383000  1
  C  C42  1  0.58788000  0.42416000  0.54808000  1
  C  C43  1  0.45463000  0.78904000  0.39015000  1
  C  C44  1  0.71914000  0.50651000  0.62851000  1
  C  C45  1  0.39525000  0.21943000  0.24902000  1
  C  C46  1  0.03980000  0.45192000  0.87608000  1
  C  C47  1  0.14623000  0.75098000  0.97041000  1
  C  C48  1  0.26410000  0.79796000  0.06524000  1
  C  C49  1  0.09063000  0.37149000  0.87800000  1
  C  C50  1  0.46614000  0.26728000  0.20204000  1
  C  C51  1  0.78737000  0.87800000  0.50651000  1
  C  C52  1  0.64233000  0.99507000  0.34372000  1
  C  C53  1  0.93552000  0.39015000  0.60111000  1
  C  C54  1  0.70139000  0.34372000  0.34865000  1
  C  C55  1  0.35274000  0.65135000  0.99507000  1
  C  C56  1  0.17582000  0.02959000  0.78057000  1
  C  C57  1  0.83628000  0.87608000  0.42416000  1
  C  C58  1  0.66559000  0.60111000  0.21096000  1
  C  C59  1  0.19886000  0.93476000  0.73272000  1
  C  C60  1  0.80114000  0.06524000  0.26728000  1
  C  C61  1  0.33441000  0.39889000  0.78904000  1
  C  C62  1  0.16372000  0.12392000  0.57584000  1
  C  C63  1  0.82418000  0.97041000  0.21943000  1
  C  C64  1  0.64726000  0.34865000  0.00493000  1
  C  C65  1  0.29861000  0.65628000  0.65135000  1
  C  C66  1  0.06448000  0.60985000  0.39889000  1
  C  C67  1  0.35767000  0.00493000  0.65628000  1
  C  C68  1  0.21263000  0.12200000  0.49349000  1
  C  C69  1  0.53386000  0.73272000  0.79796000  1
  C  C70  1  0.90937000  0.62851000  0.12200000  1
  C  C71  1  0.73590000  0.20204000  0.93476000  1
  C  C72  1  0.85377000  0.24902000  0.02959000  1
  C  C73  1  0.96020000  0.54808000  0.12392000  1
  C  C74  1  0.60475000  0.78057000  0.75098000  1
  C  C75  1  0.28086000  0.49349000  0.37149000  1
  C  C76  1  0.54537000  0.21096000  0.60985000  1
  C  C77  1  0.41212000  0.57584000  0.45192000  1
  N  N78  1  0.55760000  0.81982000  0.48408000  1
  N  N79  1  0.72221000  0.35231000  0.53092000  1
  N  N80  1  0.53803000  0.26763000  0.34026000  1
  N  N81  1  0.92648000  0.48408000  0.66426000  1
  N  N82  1  0.19777000  0.65974000  0.92737000  1
  N  N83  1  0.63010000  0.82139000  0.35231000  1
  N  N84  1  0.66480000  0.07748000  0.33772000  1
  N  N85  1  0.41268000  0.73976000  0.07748000  1
  N  N86  1  0.19129000  0.46908000  0.82139000  1
  N  N87  1  0.67292000  0.33772000  0.26024000  1
  N  N88  1  0.26222000  0.33574000  0.81982000  1
  N  N89  1  0.72960000  0.92737000  0.26763000  1
  N  N90  1  0.27040000  0.07263000  0.73237000  1
  N  N91  1  0.73778000  0.66426000  0.18018000  1
  N  N92  1  0.32708000  0.66228000  0.73976000  1
  N  N93  1  0.80871000  0.53092000  0.17861000  1
  N  N94  1  0.58732000  0.26024000  0.92252000  1
  N  N95  1  0.33520000  0.92252000  0.66228000  1
  N  N96  1  0.36990000  0.17861000  0.64769000  1
  N  N97  1  0.80223000  0.34026000  0.07263000  1
  N  N98  1  0.07352000  0.51592000  0.33574000  1
  N  N99  1  0.46197000  0.73237000  0.65974000  1
  N  N100  1  0.27779000  0.64769000  0.46908000  1
  N  N101  1  0.44240000  0.18018000  0.51592000  1
