# generated using pymatgen
data_Mn3H40C75N4(O2F3)6
_symmetry_space_group_name_H-M   'P 1'
_cell_length_a   13.64300000
_cell_length_b   19.75980000
_cell_length_c   22.18340000
_cell_angle_alpha   77.88820000
_cell_angle_beta   72.09110000
_cell_angle_gamma   69.80470000
_symmetry_Int_Tables_number   1
_chemical_formula_structural   Mn3H40C75N4(O2F3)6
_chemical_formula_sum   'Mn6 H80 C150 N8 O24 F36'
_cell_volume   5304.55589289
_cell_formula_units_Z   2
loop_
 _symmetry_equiv_pos_site_id
 _symmetry_equiv_pos_as_xyz
  1  'x, y, z'
loop_
 _atom_site_type_symbol
 _atom_site_label
 _atom_site_symmetry_multiplicity
 _atom_site_fract_x
 _atom_site_fract_y
 _atom_site_fract_z
 _atom_site_occupancy
  Mn  Mn0  1  0.00000000  0.00000000  0.00000000  1
  Mn  Mn1  1  0.28511000  0.45281000  0.47359000  1
  Mn  Mn2  1  0.28849000  0.95281000  0.97359000  1
  Mn  Mn3  1  0.50000000  0.50000000  0.50000000  1
  Mn  Mn4  1  0.71151000  0.04719000  0.02641000  1
  Mn  Mn5  1  0.71489000  0.54719000  0.52641000  1
  H  H6  1  0.01070000  0.78530000  0.87250000  1
  H  H7  1  0.02390000  0.78000000  0.03520000  1
  H  H8  1  0.02730000  0.69670000  0.57270000  1
  H  H9  1  0.03310000  0.98330000  0.79550000  1
  H  H10  1  0.03830000  0.99740000  0.68980000  1
  H  H11  1  0.04680000  0.65680000  0.06100000  1
  H  H12  1  0.05420000  0.85050000  0.92950000  1
  H  H13  1  0.05590000  0.44840000  0.61500000  1
  H  H14  1  0.06310000  0.80050000  0.36610000  1
  H  H15  1  0.08190000  0.55320000  0.61260000  1
  H  H16  1  0.08600000  0.55810000  0.41490000  1
  H  H17  1  0.09420000  0.20970000  0.45330000  1
  H  H18  1  0.11790000  0.35330000  0.77930000  1
  H  H19  1  0.12910000  0.67910000  0.39750000  1
  H  H20  1  0.16850000  0.71470000  0.62750000  1
  H  H21  1  0.19670000  0.37070000  0.67210000  1
  H  H22  1  0.20330000  0.19670000  0.07270000  1
  H  H23  1  0.22550000  0.50260000  0.81020000  1
  H  H24  1  0.24140000  0.82460000  0.72040000  1
  H  H25  1  0.24950000  0.85330000  0.27930000  1
  H  H26  1  0.25010000  0.15300000  0.50920000  1
  H  H27  1  0.25230000  0.05320000  0.11260000  1
  H  H28  1  0.25720000  0.29030000  0.04670000  1
  H  H29  1  0.26050000  0.87070000  0.17210000  1
  H  H30  1  0.26460000  0.84320000  0.43900000  1
  H  H31  1  0.27030000  0.30050000  0.86610000  1
  H  H32  1  0.28530000  0.78610000  0.03090000  1
  H  H33  1  0.28640000  0.67540000  0.77960000  1
  H  H34  1  0.28700000  0.88750000  0.77830000  1
  H  H35  1  0.29430000  0.17910000  0.89750000  1
  H  H36  1  0.31190000  0.51670000  0.70450000  1
  H  H37  1  0.33420000  0.64950000  0.57050000  1
  H  H38  1  0.33910000  0.72000000  0.46480000  1
  H  H39  1  0.37300000  0.16900000  0.54740000  1
  H  H40  1  0.38070000  0.94840000  0.11500000  1
  H  H41  1  0.39770000  0.28610000  0.53090000  1
  H  H42  1  0.41060000  0.66900000  0.04740000  1
  H  H43  1  0.41230000  0.34700000  0.99080000  1
  H  H44  1  0.44100000  0.05810000  0.91490000  1
  H  H45  1  0.45280000  0.61250000  0.72170000  1
  H  H46  1  0.54720000  0.38750000  0.27830000  1
  H  H47  1  0.55900000  0.94190000  0.08510000  1
  H  H48  1  0.58770000  0.65300000  0.00920000  1
  H  H49  1  0.58940000  0.33100000  0.95260000  1
  H  H50  1  0.60230000  0.71390000  0.46910000  1
  H  H51  1  0.61930000  0.05160000  0.88500000  1
  H  H52  1  0.62700000  0.83100000  0.45260000  1
  H  H53  1  0.66090000  0.28000000  0.53520000  1
  H  H54  1  0.66580000  0.35050000  0.42950000  1
  H  H55  1  0.68810000  0.48330000  0.29550000  1
  H  H56  1  0.70570000  0.82090000  0.10250000  1
  H  H57  1  0.71300000  0.11250000  0.22170000  1
  H  H58  1  0.71360000  0.32460000  0.22040000  1
  H  H59  1  0.71470000  0.21390000  0.96910000  1
  H  H60  1  0.72970000  0.69950000  0.13390000  1
  H  H61  1  0.73540000  0.15680000  0.56100000  1
  H  H62  1  0.73950000  0.12930000  0.82790000  1
  H  H63  1  0.74280000  0.70970000  0.95330000  1
  H  H64  1  0.74770000  0.94680000  0.88740000  1
  H  H65  1  0.74990000  0.84700000  0.49080000  1
  H  H66  1  0.75050000  0.14670000  0.72070000  1
  H  H67  1  0.75860000  0.17540000  0.27960000  1
  H  H68  1  0.77450000  0.49740000  0.18980000  1
  H  H69  1  0.79670000  0.80330000  0.92730000  1
  H  H70  1  0.80330000  0.62930000  0.32790000  1
  H  H71  1  0.83150000  0.28530000  0.37250000  1
  H  H72  1  0.87090000  0.32090000  0.60250000  1
  H  H73  1  0.88210000  0.64670000  0.22070000  1
  H  H74  1  0.90580000  0.79030000  0.54670000  1
  H  H75  1  0.91400000  0.44190000  0.58510000  1
  H  H76  1  0.91810000  0.44680000  0.38740000  1
  H  H77  1  0.93690000  0.19950000  0.63390000  1
  H  H78  1  0.94410000  0.55160000  0.38500000  1
  H  H79  1  0.94580000  0.14950000  0.07050000  1
  H  H80  1  0.95320000  0.34320000  0.93900000  1
  H  H81  1  0.96170000  0.00260000  0.31020000  1
  H  H82  1  0.96690000  0.01670000  0.20450000  1
  H  H83  1  0.97270000  0.30330000  0.42730000  1
  H  H84  1  0.97610000  0.22000000  0.96480000  1
  H  H85  1  0.98930000  0.21470000  0.12750000  1
  C  C86  1  0.00611000  0.06138000  0.57780000  1
  C  C87  1  0.00920000  0.49100000  0.60000000  1
  C  C88  1  0.01300000  0.53550000  0.11790000  1
  C  C89  1  0.02146000  0.97498000  0.28250000  1
  C  C90  1  0.02197000  0.31016000  0.92910000  1
  C  C91  1  0.02512000  0.98439000  0.21917000  1
  C  C92  1  0.02600000  0.55200000  0.59760000  1
  C  C93  1  0.03020000  0.80400000  0.71020000  1
  C  C94  1  0.03110000  0.30920000  0.43640000  1
  C  C95  1  0.03624000  0.23622000  0.94590000  1
  C  C96  1  0.03970000  0.38360000  0.42740000  1
  C  C97  1  0.04440000  0.69600000  0.78980000  1
  C  C98  1  0.06729000  0.80500000  0.85342000  1
  C  C99  1  0.07540000  0.51320000  0.41880000  1
  C  C100  1  0.09338000  0.84416000  0.88748000  1
  C  C101  1  0.09680000  0.25560000  0.45540000  1
  C  C102  1  0.10150000  0.75000000  0.75000000  1
  C  C103  1  0.10200000  0.41570000  0.87670000  1
  C  C104  1  0.10382000  0.92594000  0.30622000  1
  C  C105  1  0.10560000  0.91570000  0.37670000  1
  C  C106  1  0.11037000  0.33432000  0.89774000  1
  C  C107  1  0.11528000  0.94597000  0.17667000  1
  C  C108  1  0.11846000  0.78458000  0.38670000  1
  C  C109  1  0.12238000  0.95742000  0.10702000  1
  C  C110  1  0.12490000  0.79504000  0.79096000  1
  C  C111  1  0.12510000  0.38980000  0.44740000  1
  C  C112  1  0.13673000  0.18656000  0.93518000  1
  C  C113  1  0.14529000  0.43862000  0.92220000  1
  C  C114  1  0.15000000  0.10673000  0.95427000  1
  C  C115  1  0.15614000  0.38702000  0.76410000  1
  C  C116  1  0.15757000  0.83432000  0.39774000  1
  C  C117  1  0.15814000  0.71172000  0.40520000  1
  C  C118  1  0.16402000  0.42594000  0.80622000  1
  C  C119  1  0.16640000  0.96450000  0.38210000  1
  C  C120  1  0.17611000  0.87415000  0.86043000  1
  C  C121  1  0.17620000  0.26140000  0.48040000  1
  C  C122  1  0.19250000  0.32830000  0.47370000  1
  C  C123  1  0.19274000  0.88702000  0.26410000  1
  C  C124  1  0.19924000  0.89702000  0.19990000  1
  C  C125  1  0.20384000  0.39702000  0.69990000  1
  C  C126  1  0.20493000  0.82822000  0.76312000  1
  C  C127  1  0.21026000  0.28458000  0.88670000  1
  C  C128  1  0.21090000  0.70496000  0.70904000  1
  C  C129  1  0.21213000  0.91064000  0.89950000  1
  C  C130  1  0.22106000  0.47498000  0.78250000  1
  C  C131  1  0.22494000  0.21172000  0.90520000  1
  C  C132  1  0.22571000  0.69500000  0.64658000  1
  C  C133  1  0.23165000  0.86661000  0.79749000  1
  C  C134  1  0.23877000  0.81016000  0.42910000  1
  C  C135  1  0.24153000  0.68656000  0.43518000  1
  C  C136  1  0.25390000  0.19970000  0.50690000  1
  C  C137  1  0.26208000  0.44597000  0.67667000  1
  C  C138  1  0.27132000  0.48439000  0.71917000  1
  C  C139  1  0.27670000  0.19080000  0.06360000  1
  C  C140  1  0.28164000  0.73622000  0.44590000  1
  C  C141  1  0.28900000  0.60673000  0.45427000  1
  C  C142  1  0.29627000  0.67178000  0.73688000  1
  C  C143  1  0.30780000  0.24440000  0.04460000  1
  C  C144  1  0.31318000  0.45742000  0.60702000  1
  C  C145  1  0.32440000  0.05200000  0.09760000  1
  C  C146  1  0.32502000  0.65584000  0.61252000  1
  C  C147  1  0.32880000  0.20830000  0.52730000  1
  C  C148  1  0.34240000  0.28000000  0.51840000  1
  C  C149  1  0.35070000  0.11640000  0.07260000  1
  C  C150  1  0.35920000  0.78000000  0.01840000  1
  C  C151  1  0.39575000  0.63339000  0.70251000  1
  C  C152  1  0.39980000  0.99100000  0.10000000  1
  C  C153  1  0.41069000  0.62585000  0.63957000  1
  C  C154  1  0.41800000  0.23860000  0.01960000  1
  C  C155  1  0.43560000  0.70830000  0.02730000  1
  C  C156  1  0.46050000  0.30030000  0.99310000  1
  C  C157  1  0.46230000  0.11020000  0.05260000  1
  C  C158  1  0.47773000  0.41064000  0.39950000  1
  C  C159  1  0.49260000  0.01320000  0.91880000  1
  C  C160  1  0.49450000  0.17170000  0.02630000  1
  C  C161  1  0.50550000  0.82830000  0.97370000  1
  C  C162  1  0.50740000  0.98680000  0.08120000  1
  C  C163  1  0.52227000  0.58936000  0.60050000  1
  C  C164  1  0.53770000  0.88980000  0.94740000  1
  C  C165  1  0.53950000  0.69970000  0.00690000  1
  C  C166  1  0.56440000  0.29170000  0.97270000  1
  C  C167  1  0.58200000  0.76140000  0.98040000  1
  C  C168  1  0.58931000  0.37415000  0.36043000  1
  C  C169  1  0.60020000  0.00900000  0.90000000  1
  C  C170  1  0.60425000  0.36661000  0.29749000  1
  C  C171  1  0.64080000  0.22000000  0.98160000  1
  C  C172  1  0.64930000  0.88360000  0.92740000  1
  C  C173  1  0.65760000  0.72000000  0.48160000  1
  C  C174  1  0.67120000  0.79170000  0.47270000  1
  C  C175  1  0.67498000  0.34416000  0.38748000  1
  C  C176  1  0.67560000  0.94800000  0.90240000  1
  C  C177  1  0.68682000  0.54258000  0.39298000  1
  C  C178  1  0.69220000  0.75560000  0.95540000  1
  C  C179  1  0.70373000  0.32822000  0.26312000  1
  C  C180  1  0.71100000  0.39327000  0.54573000  1
  C  C181  1  0.71836000  0.26378000  0.55410000  1
  C  C182  1  0.72330000  0.80920000  0.93640000  1
  C  C183  1  0.72868000  0.51561000  0.28083000  1
  C  C184  1  0.73792000  0.55403000  0.32333000  1
  C  C185  1  0.74610000  0.80030000  0.49310000  1
  C  C186  1  0.75847000  0.31344000  0.56482000  1
  C  C187  1  0.76123000  0.18984000  0.57090000  1
  C  C188  1  0.76835000  0.13339000  0.20251000  1
  C  C189  1  0.77429000  0.30500000  0.35342000  1
  C  C190  1  0.77506000  0.78828000  0.09480000  1
  C  C191  1  0.77894000  0.52502000  0.21750000  1
  C  C192  1  0.78787000  0.08936000  0.10050000  1
  C  C193  1  0.78910000  0.29504000  0.29096000  1
  C  C194  1  0.78974000  0.71542000  0.11330000  1
  C  C195  1  0.79507000  0.17178000  0.23688000  1
  C  C196  1  0.79616000  0.60298000  0.30010000  1
  C  C197  1  0.80076000  0.10298000  0.80010000  1
  C  C198  1  0.80726000  0.11298000  0.73590000  1
  C  C199  1  0.80750000  0.67170000  0.52630000  1
  C  C200  1  0.82380000  0.73860000  0.51960000  1
  C  C201  1  0.82389000  0.12585000  0.13957000  1
  C  C202  1  0.83360000  0.03550000  0.61790000  1
  C  C203  1  0.83598000  0.57406000  0.19378000  1
  C  C204  1  0.84186000  0.28828000  0.59480000  1
  C  C205  1  0.84243000  0.16568000  0.60226000  1
  C  C206  1  0.84386000  0.61298000  0.23590000  1
  C  C207  1  0.85000000  0.89327000  0.04573000  1
  C  C208  1  0.85471000  0.56138000  0.07780000  1
  C  C209  1  0.86327000  0.81344000  0.06482000  1
  C  C210  1  0.87490000  0.61020000  0.55260000  1
  C  C211  1  0.87510000  0.20496000  0.20904000  1
  C  C212  1  0.87762000  0.04258000  0.89298000  1
  C  C213  1  0.88154000  0.21542000  0.61330000  1
  C  C214  1  0.88472000  0.05403000  0.82333000  1
  C  C215  1  0.88963000  0.66568000  0.10226000  1
  C  C216  1  0.89440000  0.08430000  0.62330000  1
  C  C217  1  0.89618000  0.07406000  0.69378000  1
  C  C218  1  0.89800000  0.58430000  0.12330000  1
  C  C219  1  0.89850000  0.25000000  0.25000000  1
  C  C220  1  0.90320000  0.74440000  0.54460000  1
  C  C221  1  0.90662000  0.15584000  0.11252000  1
  C  C222  1  0.92460000  0.48680000  0.58120000  1
  C  C223  1  0.93271000  0.19500000  0.14658000  1
  C  C224  1  0.95560000  0.30400000  0.21020000  1
  C  C225  1  0.96030000  0.61640000  0.57260000  1
  C  C226  1  0.96376000  0.76378000  0.05410000  1
  C  C227  1  0.96890000  0.69080000  0.56360000  1
  C  C228  1  0.96980000  0.19600000  0.28980000  1
  C  C229  1  0.97400000  0.44800000  0.40240000  1
  C  C230  1  0.97488000  0.01561000  0.78083000  1
  C  C231  1  0.97803000  0.68984000  0.07090000  1
  C  C232  1  0.97854000  0.02502000  0.71750000  1
  C  C233  1  0.98700000  0.46450000  0.88210000  1
  C  C234  1  0.99080000  0.50900000  0.40000000  1
  C  C235  1  0.99389000  0.93862000  0.42220000  1
  N  N236  1  0.14231000  0.45438000  0.44260000  1
  N  N237  1  0.27505000  0.33730000  0.49220000  1
  N  N238  1  0.39545000  0.83730000  0.99220000  1
  N  N239  1  0.46071000  0.95438000  0.94260000  1
  N  N240  1  0.53929000  0.04562000  0.05740000  1
  N  N241  1  0.60455000  0.16270000  0.00780000  1
  N  N242  1  0.72495000  0.66270000  0.50780000  1
  N  N243  1  0.85769000  0.54562000  0.55740000  1
  O  O244  1  0.03620000  0.97882000  0.09018000  1
  O  O245  1  0.06714000  0.08838000  0.97134000  1
  O  O246  1  0.15630000  0.92131000  0.95555000  1
  O  O247  1  0.21648000  0.94430000  0.07074000  1
  O  O248  1  0.23863000  0.56527000  0.45147000  1
  O  O249  1  0.24463000  0.06527000  0.95147000  1
  O  O250  1  0.26848000  0.44430000  0.57074000  1
  O  O251  1  0.29668000  0.92641000  0.87683000  1
  O  O252  1  0.37314000  0.58838000  0.47134000  1
  O  O253  1  0.39480000  0.47882000  0.59018000  1
  O  O254  1  0.40008000  0.42641000  0.37683000  1
  O  O255  1  0.46684000  0.42131000  0.45555000  1
  O  O256  1  0.53316000  0.57869000  0.54445000  1
  O  O257  1  0.59992000  0.57359000  0.62317000  1
  O  O258  1  0.60520000  0.52118000  0.40982000  1
  O  O259  1  0.62686000  0.41162000  0.52866000  1
  O  O260  1  0.70332000  0.07359000  0.12317000  1
  O  O261  1  0.73152000  0.55570000  0.42926000  1
  O  O262  1  0.75537000  0.93473000  0.04853000  1
  O  O263  1  0.76137000  0.43473000  0.54853000  1
  O  O264  1  0.78352000  0.05570000  0.92926000  1
  O  O265  1  0.84370000  0.07869000  0.04445000  1
  O  O266  1  0.93286000  0.91162000  0.02866000  1
  O  O267  1  0.96380000  0.02118000  0.90982000  1
  F  F268  1  0.00448000  0.08309000  0.51755000  1
  F  F269  1  0.01196000  0.22589000  0.32019000  1
  F  F270  1  0.01948000  0.46781000  0.14343000  1
  F  F271  1  0.04234000  0.64908000  0.75484000  1
  F  F272  1  0.05374000  0.14908000  0.25484000  1
  F  F273  1  0.05378000  0.98922000  0.58142000  1
  F  F274  1  0.05804000  0.27411000  0.17981000  1
  F  F275  1  0.06289000  0.55908000  0.14974000  1
  F  F276  1  0.07545000  0.08885000  0.58885000  1
  F  F277  1  0.07578000  0.53219000  0.05905000  1
  F  F278  1  0.08323000  0.84487000  0.66507000  1
  F  F279  1  0.09317000  0.65513000  0.83493000  1
  F  F280  1  0.10512000  0.41691000  0.98245000  1
  F  F281  1  0.12442000  0.51078000  0.91858000  1
  F  F282  1  0.13072000  0.03219000  0.35657000  1
  F  F283  1  0.16702000  0.96781000  0.44095000  1
  F  F284  1  0.25315000  0.41115000  0.91115000  1
  F  F285  1  0.27171000  0.94092000  0.35026000  1
  F  F286  1  0.72829000  0.05908000  0.64974000  1
  F  F287  1  0.74685000  0.58885000  0.08885000  1
  F  F288  1  0.83298000  0.03219000  0.55905000  1
  F  F289  1  0.86928000  0.96781000  0.64343000  1
  F  F290  1  0.87558000  0.48922000  0.08142000  1
  F  F291  1  0.89488000  0.58309000  0.01755000  1
  F  F292  1  0.90683000  0.34487000  0.16507000  1
  F  F293  1  0.91677000  0.15513000  0.33493000  1
  F  F294  1  0.92422000  0.46781000  0.94095000  1
  F  F295  1  0.92455000  0.91115000  0.41115000  1
  F  F296  1  0.93711000  0.44092000  0.85026000  1
  F  F297  1  0.94196000  0.72589000  0.82019000  1
  F  F298  1  0.94622000  0.01078000  0.41858000  1
  F  F299  1  0.94626000  0.85092000  0.74516000  1
  F  F300  1  0.95766000  0.35092000  0.24516000  1
  F  F301  1  0.98052000  0.53219000  0.85657000  1
  F  F302  1  0.98804000  0.77411000  0.67981000  1
  F  F303  1  0.99552000  0.91691000  0.48245000  1
