# generated using pymatgen
data_MnH10C14(NO2)2
_symmetry_space_group_name_H-M   'P 1'
_cell_length_a   11.87600000
_cell_length_b   11.87600000
_cell_length_c   16.34100000
_cell_angle_alpha   73.36070000
_cell_angle_beta   73.36070000
_cell_angle_gamma   78.38130000
_symmetry_Int_Tables_number   1
_chemical_formula_structural   MnH10C14(NO2)2
_chemical_formula_sum   'Mn4 H40 C56 N8 O16'
_cell_volume   2097.77796547
_cell_formula_units_Z   4
loop_
 _symmetry_equiv_pos_site_id
 _symmetry_equiv_pos_as_xyz
  1  'x, y, z'
loop_
 _atom_site_type_symbol
 _atom_site_label
 _atom_site_symmetry_multiplicity
 _atom_site_fract_x
 _atom_site_fract_y
 _atom_site_fract_z
 _atom_site_occupancy
  Mn  Mn0  1  0.61596000  0.83244000  0.54676000  1
  Mn  Mn1  1  0.83244000  0.61596000  0.04676000  1
  Mn  Mn2  1  0.16756000  0.38404000  0.95324000  1
  Mn  Mn3  1  0.38404000  0.16756000  0.45324000  1
  H  H4  1  0.57330000  0.98210000  0.04700000  1
  H  H5  1  0.51330000  0.85630000  0.75530000  1
  H  H6  1  0.54700000  0.83300000  0.96300000  1
  H  H7  1  0.66280000  0.81340000  0.27340000  1
  H  H8  1  0.41280000  0.77520000  0.48410000  1
  H  H9  1  0.62200000  0.73300000  0.82740000  1
  H  H10  1  0.36650000  0.70650000  0.99820000  1
  H  H11  1  0.63880000  0.67160000  0.92240000  1
  H  H12  1  0.81340000  0.66280000  0.77340000  1
  H  H13  1  0.67160000  0.63880000  0.42240000  1
  H  H14  1  0.29350000  0.63350000  0.50180000  1
  H  H15  1  0.73300000  0.62200000  0.32740000  1
  H  H16  1  0.22480000  0.58720000  0.01590000  1
  H  H17  1  0.56350000  0.57830000  0.15180000  1
  H  H18  1  0.54040000  0.57700000  0.31960000  1
  H  H19  1  0.98210000  0.57330000  0.54700000  1
  H  H20  1  0.57830000  0.56350000  0.65180000  1
  H  H21  1  0.83300000  0.54700000  0.46300000  1
  H  H22  1  0.57700000  0.54040000  0.81960000  1
  H  H23  1  0.85630000  0.51330000  0.25530000  1
  H  H24  1  0.14370000  0.48670000  0.74470000  1
  H  H25  1  0.42300000  0.45960000  0.18040000  1
  H  H26  1  0.16700000  0.45300000  0.53700000  1
  H  H27  1  0.42170000  0.43650000  0.34820000  1
  H  H28  1  0.01790000  0.42670000  0.45300000  1
  H  H29  1  0.45960000  0.42300000  0.68040000  1
  H  H30  1  0.43650000  0.42170000  0.84820000  1
  H  H31  1  0.77520000  0.41280000  0.98410000  1
  H  H32  1  0.26700000  0.37800000  0.67260000  1
  H  H33  1  0.70650000  0.36650000  0.49820000  1
  H  H34  1  0.32840000  0.36120000  0.57760000  1
  H  H35  1  0.18660000  0.33720000  0.22660000  1
  H  H36  1  0.36120000  0.32840000  0.07760000  1
  H  H37  1  0.63350000  0.29350000  0.00180000  1
  H  H38  1  0.37800000  0.26700000  0.17260000  1
  H  H39  1  0.58720000  0.22480000  0.51590000  1
  H  H40  1  0.33720000  0.18660000  0.72660000  1
  H  H41  1  0.45300000  0.16700000  0.03700000  1
  H  H42  1  0.48670000  0.14370000  0.24470000  1
  H  H43  1  0.42670000  0.01790000  0.95300000  1
  C  C44  1  0.57240000  0.98100000  0.10440000  1
  C  C45  1  0.57290000  0.97670000  0.27450000  1
  C  C46  1  0.57270000  0.97570000  0.36640000  1
  C  C47  1  0.47980000  0.92260000  0.77770000  1
  C  C48  1  0.48240000  0.92080000  0.86260000  1
  C  C49  1  0.62550000  0.88150000  0.15460000  1
  C  C50  1  0.62630000  0.87970000  0.23960000  1
  C  C51  1  0.69000000  0.77820000  0.11640000  1
  C  C52  1  0.58130000  0.71610000  0.88940000  1
  C  C53  1  0.42250000  0.70310000  0.52470000  1
  C  C54  1  0.77820000  0.69000000  0.61640000  1
  C  C55  1  0.38190000  0.65130000  0.96460000  1
  C  C56  1  0.48650000  0.64030000  0.90420000  1
  C  C57  1  0.87970000  0.62630000  0.73960000  1
  C  C58  1  0.88150000  0.62550000  0.65460000  1
  C  C59  1  0.34870000  0.61810000  0.53540000  1
  C  C60  1  0.71610000  0.58130000  0.38940000  1
  C  C61  1  0.51740000  0.58040000  0.62300000  1
  C  C62  1  0.29690000  0.57750000  0.97530000  1
  C  C63  1  0.97670000  0.57290000  0.77450000  1
  C  C64  1  0.97570000  0.57270000  0.86640000  1
  C  C65  1  0.98100000  0.57240000  0.60440000  1
  C  C66  1  0.50560000  0.55220000  0.86030000  1
  C  C67  1  0.07740000  0.52020000  0.72230000  1
  C  C68  1  0.07920000  0.51760000  0.63740000  1
  C  C69  1  0.58040000  0.51740000  0.12300000  1
  C  C70  1  0.35970000  0.51350000  0.59580000  1
  C  C71  1  0.55220000  0.50560000  0.36030000  1
  C  C72  1  0.44780000  0.49440000  0.63970000  1
  C  C73  1  0.64030000  0.48650000  0.40420000  1
  C  C74  1  0.41960000  0.48260000  0.87700000  1
  C  C75  1  0.92080000  0.48240000  0.36260000  1
  C  C76  1  0.92260000  0.47980000  0.27770000  1
  C  C77  1  0.49440000  0.44780000  0.13970000  1
  C  C78  1  0.01900000  0.42760000  0.39560000  1
  C  C79  1  0.02430000  0.42730000  0.13360000  1
  C  C80  1  0.02330000  0.42710000  0.22550000  1
  C  C81  1  0.70310000  0.42250000  0.02470000  1
  C  C82  1  0.48260000  0.41960000  0.37700000  1
  C  C83  1  0.28390000  0.41870000  0.61060000  1
  C  C84  1  0.65130000  0.38190000  0.46460000  1
  C  C85  1  0.11850000  0.37450000  0.34540000  1
  C  C86  1  0.12030000  0.37370000  0.26040000  1
  C  C87  1  0.51350000  0.35970000  0.09580000  1
  C  C88  1  0.61810000  0.34870000  0.03540000  1
  C  C89  1  0.22180000  0.31000000  0.38360000  1
  C  C90  1  0.57750000  0.29690000  0.47530000  1
  C  C91  1  0.41870000  0.28390000  0.11060000  1
  C  C92  1  0.31000000  0.22180000  0.88360000  1
  C  C93  1  0.37370000  0.12030000  0.76040000  1
  C  C94  1  0.37450000  0.11850000  0.84540000  1
  C  C95  1  0.51760000  0.07920000  0.13740000  1
  C  C96  1  0.52020000  0.07740000  0.22230000  1
  C  C97  1  0.42730000  0.02430000  0.63360000  1
  C  C98  1  0.42710000  0.02330000  0.72550000  1
  C  C99  1  0.42760000  0.01900000  0.89560000  1
  N  N100  1  0.53800000  0.82600000  0.91440000  1
  N  N101  1  0.50460000  0.68720000  0.56830000  1
  N  N102  1  0.82600000  0.53800000  0.41440000  1
  N  N103  1  0.68720000  0.50460000  0.06830000  1
  N  N104  1  0.31280000  0.49540000  0.93170000  1
  N  N105  1  0.17400000  0.46200000  0.58560000  1
  N  N106  1  0.49540000  0.31280000  0.43170000  1
  N  N107  1  0.46200000  0.17400000  0.08560000  1
  O  O108  1  0.46370000  0.92990000  0.60830000  1
  O  O109  1  0.61460000  0.87980000  0.41190000  1
  O  O110  1  0.69620000  0.78520000  0.03650000  1
  O  O111  1  0.68930000  0.73690000  0.66420000  1
  O  O112  1  0.78520000  0.69620000  0.53650000  1
  O  O113  1  0.73690000  0.68930000  0.16420000  1
  O  O114  1  0.87980000  0.61460000  0.91190000  1
  O  O115  1  0.07010000  0.53630000  0.89170000  1
  O  O116  1  0.92990000  0.46370000  0.10830000  1
  O  O117  1  0.12020000  0.38540000  0.08810000  1
  O  O118  1  0.26310000  0.31070000  0.83580000  1
  O  O119  1  0.21480000  0.30380000  0.46350000  1
  O  O120  1  0.31070000  0.26310000  0.33580000  1
  O  O121  1  0.30380000  0.21480000  0.96350000  1
  O  O122  1  0.38540000  0.12020000  0.58810000  1
  O  O123  1  0.53630000  0.07010000  0.39170000  1
