# generated using pymatgen
data_CoH9(C5N2)3
_symmetry_space_group_name_H-M   'P 1'
_cell_length_a   10.58350000
_cell_length_b   11.64860000
_cell_length_c   17.60900000
_cell_angle_alpha   90.00000000
_cell_angle_beta   90.00000000
_cell_angle_gamma   110.27200000
_symmetry_Int_Tables_number   1
_chemical_formula_structural   CoH9(C5N2)3
_chemical_formula_sum   'Co4 H36 C60 N24'
_cell_volume   2036.42116250
_cell_formula_units_Z   4
loop_
 _symmetry_equiv_pos_site_id
 _symmetry_equiv_pos_as_xyz
  1  'x, y, z'
loop_
 _atom_site_type_symbol
 _atom_site_label
 _atom_site_symmetry_multiplicity
 _atom_site_fract_x
 _atom_site_fract_y
 _atom_site_fract_z
 _atom_site_occupancy
  Co  Co0  1  0.01683000  0.78372000  0.17353000  1
  Co  Co1  1  0.48317000  0.21628000  0.67353000  1
  Co  Co2  1  0.51683000  0.78372000  0.32647000  1
  Co  Co3  1  0.98317000  0.21628000  0.82647000  1
  H  H4  1  0.01940000  0.96770000  0.77060000  1
  H  H5  1  0.03380000  0.54960000  0.09650000  1
  H  H6  1  0.12460000  0.81510000  0.78610000  1
  H  H7  1  0.13240000  0.71940000  0.02280000  1
  H  H8  1  0.14130000  0.12710000  0.96080000  1
  H  H9  1  0.15250000  0.44710000  0.71260000  1
  H  H10  1  0.16130000  0.02110000  0.10440000  1
  H  H11  1  0.20120000  0.36800000  0.15410000  1
  H  H12  1  0.22770000  0.69870000  0.24630000  1
  H  H13  1  0.27230000  0.30130000  0.74630000  1
  H  H14  1  0.29880000  0.63200000  0.65410000  1
  H  H15  1  0.33870000  0.97890000  0.60440000  1
  H  H16  1  0.34750000  0.55290000  0.21260000  1
  H  H17  1  0.35870000  0.87290000  0.46080000  1
  H  H18  1  0.36760000  0.28060000  0.52280000  1
  H  H19  1  0.37540000  0.18490000  0.28610000  1
  H  H20  1  0.46620000  0.45040000  0.59650000  1
  H  H21  1  0.48060000  0.03230000  0.27060000  1
  H  H22  1  0.51940000  0.96770000  0.72940000  1
  H  H23  1  0.53380000  0.54960000  0.40350000  1
  H  H24  1  0.62460000  0.81510000  0.71390000  1
  H  H25  1  0.63240000  0.71940000  0.47720000  1
  H  H26  1  0.64130000  0.12710000  0.53920000  1
  H  H27  1  0.65250000  0.44710000  0.78740000  1
  H  H28  1  0.66130000  0.02110000  0.39560000  1
  H  H29  1  0.70120000  0.36800000  0.34590000  1
  H  H30  1  0.72770000  0.69870000  0.25370000  1
  H  H31  1  0.77230000  0.30130000  0.75370000  1
  H  H32  1  0.79880000  0.63200000  0.84590000  1
  H  H33  1  0.83870000  0.97890000  0.89560000  1
  H  H34  1  0.84750000  0.55290000  0.28740000  1
  H  H35  1  0.85870000  0.87290000  0.03920000  1
  H  H36  1  0.86760000  0.28060000  0.97720000  1
  H  H37  1  0.87540000  0.18490000  0.21390000  1
  H  H38  1  0.96620000  0.45040000  0.90350000  1
  H  H39  1  0.98060000  0.03230000  0.22940000  1
  C  C40  1  0.01590000  0.47570000  0.85920000  1
  C  C41  1  0.06440000  0.74960000  0.01053000  1
  C  C42  1  0.08170000  0.20030000  0.05411000  1
  C  C43  1  0.08510000  0.16620000  0.98030000  1
  C  C44  1  0.09510000  0.03440000  0.75790000  1
  C  C45  1  0.11770000  0.47360000  0.75493000  1
  C  C46  1  0.13330000  0.59220000  0.77053000  1
  C  C47  1  0.16570000  0.19490000  0.11963000  1
  C  C48  1  0.17690000  0.81240000  0.74420000  1
  C  C49  1  0.19330000  0.08870000  0.13624000  1
  C  C50  1  0.19900000  0.70370000  0.72663000  1
  C  C51  1  0.20510000  0.02800000  0.72223000  1
  C  C52  1  0.21970000  0.29740000  0.16508000  1
  C  C53  1  0.23230000  0.91610000  0.69970000  1
  C  C54  1  0.23390000  0.21650000  0.74440000  1
  C  C55  1  0.26610000  0.78350000  0.24440000  1
  C  C56  1  0.26770000  0.08390000  0.19970000  1
  C  C57  1  0.28030000  0.70260000  0.66508000  1
  C  C58  1  0.29490000  0.97200000  0.22223000  1
  C  C59  1  0.30100000  0.29630000  0.22663000  1
  C  C60  1  0.30670000  0.91130000  0.63624000  1
  C  C61  1  0.32310000  0.18760000  0.24420000  1
  C  C62  1  0.33430000  0.80510000  0.61963000  1
  C  C63  1  0.36670000  0.40780000  0.27053000  1
  C  C64  1  0.38230000  0.52640000  0.25493000  1
  C  C65  1  0.40490000  0.96560000  0.25790000  1
  C  C66  1  0.41490000  0.83380000  0.48030000  1
  C  C67  1  0.41830000  0.79970000  0.55411000  1
  C  C68  1  0.43560000  0.25040000  0.51053000  1
  C  C69  1  0.48410000  0.52430000  0.35920000  1
  C  C70  1  0.51590000  0.47570000  0.64080000  1
  C  C71  1  0.56440000  0.74960000  0.48947000  1
  C  C72  1  0.58170000  0.20030000  0.44589000  1
  C  C73  1  0.58510000  0.16620000  0.51970000  1
  C  C74  1  0.59510000  0.03440000  0.74210000  1
  C  C75  1  0.61770000  0.47360000  0.74507000  1
  C  C76  1  0.63330000  0.59220000  0.72947000  1
  C  C77  1  0.66570000  0.19490000  0.38037000  1
  C  C78  1  0.67690000  0.81240000  0.75580000  1
  C  C79  1  0.69330000  0.08870000  0.36376000  1
  C  C80  1  0.69900000  0.70370000  0.77337000  1
  C  C81  1  0.70510000  0.02800000  0.77777000  1
  C  C82  1  0.71970000  0.29740000  0.33492000  1
  C  C83  1  0.73230000  0.91610000  0.80030000  1
  C  C84  1  0.73390000  0.21650000  0.75560000  1
  C  C85  1  0.76610000  0.78350000  0.25560000  1
  C  C86  1  0.76770000  0.08390000  0.30030000  1
  C  C87  1  0.78030000  0.70260000  0.83492000  1
  C  C88  1  0.79490000  0.97200000  0.27777000  1
  C  C89  1  0.80100000  0.29630000  0.27337000  1
  C  C90  1  0.80670000  0.91130000  0.86376000  1
  C  C91  1  0.82310000  0.18760000  0.25580000  1
  C  C92  1  0.83430000  0.80510000  0.88037000  1
  C  C93  1  0.86670000  0.40780000  0.22947000  1
  C  C94  1  0.88230000  0.52640000  0.24507000  1
  C  C95  1  0.90490000  0.96560000  0.24210000  1
  C  C96  1  0.91490000  0.83380000  0.01970000  1
  C  C97  1  0.91830000  0.79970000  0.94589000  1
  C  C98  1  0.93560000  0.25040000  0.98947000  1
  C  C99  1  0.98410000  0.52430000  0.14080000  1
  N  N100  1  0.00770000  0.80130000  0.06078000  1
  N  N101  1  0.01440000  0.74500000  0.94044000  1
  N  N102  1  0.04280000  0.39890000  0.81138000  1
  N  N103  1  0.06660000  0.59180000  0.83770000  1
  N  N104  1  0.11210000  0.15490000  0.77254000  1
  N  N105  1  0.20420000  0.85410000  0.21335000  1
  N  N106  1  0.29580000  0.14590000  0.71335000  1
  N  N107  1  0.38790000  0.84510000  0.27254000  1
  N  N108  1  0.43340000  0.40820000  0.33770000  1
  N  N109  1  0.45720000  0.60110000  0.31138000  1
  N  N110  1  0.48560000  0.25500000  0.44044000  1
  N  N111  1  0.49230000  0.19870000  0.56078000  1
  N  N112  1  0.50770000  0.80130000  0.43922000  1
  N  N113  1  0.51440000  0.74500000  0.55956000  1
  N  N114  1  0.54280000  0.39890000  0.68862000  1
  N  N115  1  0.56660000  0.59180000  0.66230000  1
  N  N116  1  0.61210000  0.15490000  0.72746000  1
  N  N117  1  0.70420000  0.85410000  0.28665000  1
  N  N118  1  0.79580000  0.14590000  0.78665000  1
  N  N119  1  0.88790000  0.84510000  0.22746000  1
  N  N120  1  0.93340000  0.40820000  0.16230000  1
  N  N121  1  0.95720000  0.60110000  0.18862000  1
  N  N122  1  0.98560000  0.25500000  0.05956000  1
  N  N123  1  0.99230000  0.19870000  0.93922000  1
