# generated using pymatgen
data_Zn2P2H8C9N5O11
_symmetry_space_group_name_H-M   'P 1'
_cell_length_a   8.97900000
_cell_length_b   15.44400000
_cell_length_c   17.89500000
_cell_angle_alpha   90.00000000
_cell_angle_beta   90.00000000
_cell_angle_gamma   90.00000000
_symmetry_Int_Tables_number   1
_chemical_formula_structural   Zn2P2H8C9N5O11
_chemical_formula_sum   'Zn8 P8 H32 C36 N20 O44'
_cell_volume   2481.52964202
_cell_formula_units_Z   4
loop_
 _symmetry_equiv_pos_site_id
 _symmetry_equiv_pos_as_xyz
  1  'x, y, z'
loop_
 _atom_site_type_symbol
 _atom_site_label
 _atom_site_symmetry_multiplicity
 _atom_site_fract_x
 _atom_site_fract_y
 _atom_site_fract_z
 _atom_site_occupancy
  Zn  Zn0  1  0.05717000  0.08578000  0.10492000  1
  Zn  Zn1  1  0.05717000  0.08578000  0.39508000  1
  Zn  Zn2  1  0.55717000  0.41422000  0.60492000  1
  Zn  Zn3  1  0.55717000  0.41422000  0.89508000  1
  Zn  Zn4  1  0.44283000  0.58578000  0.10492000  1
  Zn  Zn5  1  0.44283000  0.58578000  0.39508000  1
  Zn  Zn6  1  0.94283000  0.91422000  0.60492000  1
  Zn  Zn7  1  0.94283000  0.91422000  0.89508000  1
  P  P8  1  0.76924000  0.01326000  0.01468000  1
  P  P9  1  0.76924000  0.01326000  0.48532000  1
  P  P10  1  0.26924000  0.48674000  0.51468000  1
  P  P11  1  0.26924000  0.48674000  0.98532000  1
  P  P12  1  0.73076000  0.51326000  0.01468000  1
  P  P13  1  0.73076000  0.51326000  0.48532000  1
  P  P14  1  0.23076000  0.98674000  0.51468000  1
  P  P15  1  0.23076000  0.98674000  0.98532000  1
  H  H16  1  0.90920000  0.08850000  0.57240000  1
  H  H17  1  0.90920000  0.08850000  0.92760000  1
  H  H18  1  0.51640000  0.13280000  0.66130000  1
  H  H19  1  0.51640000  0.13280000  0.83870000  1
  H  H20  1  0.52670000  0.13650000  0.57410000  1
  H  H21  1  0.52670000  0.13650000  0.92590000  1
  H  H22  1  0.79760000  0.15150000  0.53310000  1
  H  H23  1  0.79760000  0.15150000  0.96690000  1
  H  H24  1  0.29760000  0.34850000  0.03310000  1
  H  H25  1  0.29760000  0.34850000  0.46690000  1
  H  H26  1  0.02670000  0.36350000  0.07410000  1
  H  H27  1  0.02670000  0.36350000  0.42590000  1
  H  H28  1  0.01640000  0.36720000  0.16130000  1
  H  H29  1  0.01640000  0.36720000  0.33870000  1
  H  H30  1  0.40920000  0.41150000  0.07240000  1
  H  H31  1  0.40920000  0.41150000  0.42760000  1
  H  H32  1  0.59080000  0.58850000  0.57240000  1
  H  H33  1  0.59080000  0.58850000  0.92760000  1
  H  H34  1  0.98360000  0.63280000  0.66130000  1
  H  H35  1  0.98360000  0.63280000  0.83870000  1
  H  H36  1  0.97330000  0.63650000  0.57410000  1
  H  H37  1  0.97330000  0.63650000  0.92590000  1
  H  H38  1  0.70240000  0.65150000  0.53310000  1
  H  H39  1  0.70240000  0.65150000  0.96690000  1
  H  H40  1  0.20240000  0.84850000  0.03310000  1
  H  H41  1  0.20240000  0.84850000  0.46690000  1
  H  H42  1  0.47330000  0.86350000  0.07410000  1
  H  H43  1  0.47330000  0.86350000  0.42590000  1
  H  H44  1  0.48360000  0.86720000  0.16130000  1
  H  H45  1  0.48360000  0.86720000  0.33870000  1
  H  H46  1  0.09080000  0.91150000  0.07240000  1
  H  H47  1  0.09080000  0.91150000  0.42760000  1
  C  C48  1  0.08710000  0.03660000  0.25000000  1
  C  C49  1  0.75530000  0.05630000  0.68710000  1
  C  C50  1  0.75530000  0.05630000  0.81290000  1
  C  C51  1  0.80680000  0.09490000  0.55600000  1
  C  C52  1  0.80680000  0.09490000  0.94400000  1
  C  C53  1  0.58110000  0.14790000  0.61990000  1
  C  C54  1  0.58110000  0.14790000  0.88010000  1
  C  C55  1  0.61400000  0.24340000  0.62400000  1
  C  C56  1  0.61400000  0.24340000  0.87600000  1
  C  C57  1  0.11400000  0.25660000  0.12400000  1
  C  C58  1  0.11400000  0.25660000  0.37600000  1
  C  C59  1  0.08110000  0.35210000  0.11990000  1
  C  C60  1  0.08110000  0.35210000  0.38010000  1
  C  C61  1  0.30680000  0.40510000  0.05600000  1
  C  C62  1  0.30680000  0.40510000  0.44400000  1
  C  C63  1  0.25530000  0.44370000  0.18710000  1
  C  C64  1  0.25530000  0.44370000  0.31290000  1
  C  C65  1  0.58710000  0.46340000  0.75000000  1
  C  C66  1  0.41290000  0.53660000  0.25000000  1
  C  C67  1  0.74470000  0.55630000  0.68710000  1
  C  C68  1  0.74470000  0.55630000  0.81290000  1
  C  C69  1  0.69320000  0.59490000  0.55600000  1
  C  C70  1  0.69320000  0.59490000  0.94400000  1
  C  C71  1  0.91890000  0.64790000  0.61990000  1
  C  C72  1  0.91890000  0.64790000  0.88010000  1
  C  C73  1  0.88600000  0.74340000  0.62400000  1
  C  C74  1  0.88600000  0.74340000  0.87600000  1
  C  C75  1  0.38600000  0.75660000  0.12400000  1
  C  C76  1  0.38600000  0.75660000  0.37600000  1
  C  C77  1  0.41890000  0.85210000  0.11990000  1
  C  C78  1  0.41890000  0.85210000  0.38010000  1
  C  C79  1  0.19320000  0.90510000  0.05600000  1
  C  C80  1  0.19320000  0.90510000  0.44400000  1
  C  C81  1  0.24470000  0.94370000  0.18710000  1
  C  C82  1  0.24470000  0.94370000  0.31290000  1
  C  C83  1  0.91290000  0.96340000  0.75000000  1
  N  N84  1  0.13680000  0.00410000  0.18370000  1
  N  N85  1  0.13680000  0.00410000  0.31630000  1
  N  N86  1  0.69500000  0.08480000  0.75000000  1
  N  N87  1  0.70990000  0.09190000  0.62190000  1
  N  N88  1  0.70990000  0.09190000  0.87810000  1
  N  N89  1  0.20990000  0.40810000  0.12190000  1
  N  N90  1  0.20990000  0.40810000  0.37810000  1
  N  N91  1  0.19500000  0.41520000  0.25000000  1
  N  N92  1  0.63680000  0.49590000  0.68370000  1
  N  N93  1  0.63680000  0.49590000  0.81630000  1
  N  N94  1  0.36320000  0.50410000  0.18370000  1
  N  N95  1  0.36320000  0.50410000  0.31630000  1
  N  N96  1  0.80500000  0.58480000  0.75000000  1
  N  N97  1  0.79010000  0.59190000  0.62190000  1
  N  N98  1  0.79010000  0.59190000  0.87810000  1
  N  N99  1  0.29010000  0.90810000  0.12190000  1
  N  N100  1  0.29010000  0.90810000  0.37810000  1
  N  N101  1  0.30500000  0.91520000  0.25000000  1
  N  N102  1  0.86320000  0.99590000  0.68370000  1
  N  N103  1  0.86320000  0.99590000  0.81630000  1
  O  O104  1  0.60660000  0.01910000  0.03750000  1
  O  O105  1  0.60660000  0.01910000  0.46250000  1
  O  O106  1  0.86490000  0.03550000  0.08070000  1
  O  O107  1  0.86490000  0.03550000  0.41930000  1
  O  O108  1  0.19540000  0.07380000  0.02000000  1
  O  O109  1  0.19540000  0.07380000  0.48000000  1
  O  O110  1  0.99510000  0.09540000  0.25000000  1
  O  O111  1  0.00300000  0.20870000  0.10790000  1
  O  O112  1  0.00300000  0.20870000  0.39210000  1
  O  O113  1  0.23730000  0.22820000  0.14050000  1
  O  O114  1  0.23730000  0.22820000  0.35950000  1
  O  O115  1  0.73730000  0.27180000  0.64050000  1
  O  O116  1  0.73730000  0.27180000  0.85950000  1
  O  O117  1  0.50300000  0.29130000  0.60790000  1
  O  O118  1  0.50300000  0.29130000  0.89210000  1
  O  O119  1  0.49510000  0.40460000  0.75000000  1
  O  O120  1  0.69540000  0.42620000  0.52000000  1
  O  O121  1  0.69540000  0.42620000  0.98000000  1
  O  O122  1  0.36490000  0.46450000  0.58070000  1
  O  O123  1  0.36490000  0.46450000  0.91930000  1
  O  O124  1  0.10660000  0.48090000  0.53750000  1
  O  O125  1  0.10660000  0.48090000  0.96250000  1
  O  O126  1  0.89340000  0.51910000  0.03750000  1
  O  O127  1  0.89340000  0.51910000  0.46250000  1
  O  O128  1  0.63510000  0.53550000  0.08070000  1
  O  O129  1  0.63510000  0.53550000  0.41930000  1
  O  O130  1  0.30460000  0.57380000  0.02000000  1
  O  O131  1  0.30460000  0.57380000  0.48000000  1
  O  O132  1  0.50490000  0.59540000  0.25000000  1
  O  O133  1  0.49700000  0.70870000  0.10790000  1
  O  O134  1  0.49700000  0.70870000  0.39210000  1
  O  O135  1  0.26270000  0.72820000  0.14050000  1
  O  O136  1  0.26270000  0.72820000  0.35950000  1
  O  O137  1  0.76270000  0.77180000  0.64050000  1
  O  O138  1  0.76270000  0.77180000  0.85950000  1
  O  O139  1  0.99700000  0.79130000  0.60790000  1
  O  O140  1  0.99700000  0.79130000  0.89210000  1
  O  O141  1  0.00490000  0.90460000  0.75000000  1
  O  O142  1  0.80460000  0.92620000  0.52000000  1
  O  O143  1  0.80460000  0.92620000  0.98000000  1
  O  O144  1  0.13510000  0.96450000  0.58070000  1
  O  O145  1  0.13510000  0.96450000  0.91930000  1
  O  O146  1  0.39340000  0.98090000  0.53750000  1
  O  O147  1  0.39340000  0.98090000  0.96250000  1
