# generated using pymatgen
data_Be12P16H17O48
_symmetry_space_group_name_H-M   'P 1'
_cell_length_a   13.33160000
_cell_length_b   18.00260000
_cell_length_c   18.00260000
_cell_angle_alpha   120.00000000
_cell_angle_beta   90.00000000
_cell_angle_gamma   90.00000000
_symmetry_Int_Tables_number   1
_chemical_formula_structural   Be12P16H17O48
_chemical_formula_sum   'Be24 P32 H34 O96'
_cell_volume   3741.82412173
_cell_formula_units_Z   2
loop_
 _symmetry_equiv_pos_site_id
 _symmetry_equiv_pos_as_xyz
  1  'x, y, z'
loop_
 _atom_site_type_symbol
 _atom_site_label
 _atom_site_symmetry_multiplicity
 _atom_site_fract_x
 _atom_site_fract_y
 _atom_site_fract_z
 _atom_site_occupancy
  Be  Be0  1  0.75000000  0.95400000  0.30790000  1
  Be  Be1  1  0.88160000  0.95240000  0.59550000  1
  Be  Be2  1  0.61840000  0.95240000  0.59550000  1
  Be  Be3  1  0.25000000  0.79910000  0.51420000  1
  Be  Be4  1  0.25000000  0.71510000  0.20090000  1
  Be  Be5  1  0.75000000  0.69210000  0.64610000  1
  Be  Be6  1  0.25000000  0.64610000  0.95400000  1
  Be  Be7  1  0.88160000  0.64310000  0.04760000  1
  Be  Be8  1  0.61840000  0.64310000  0.04760000  1
  Be  Be9  1  0.38160000  0.59550000  0.64310000  1
  Be  Be10  1  0.11840000  0.59550000  0.64310000  1
  Be  Be11  1  0.75000000  0.51420000  0.71510000  1
  Be  Be12  1  0.25000000  0.48580000  0.28490000  1
  Be  Be13  1  0.88160000  0.40450000  0.35690000  1
  Be  Be14  1  0.61840000  0.40450000  0.35690000  1
  Be  Be15  1  0.38160000  0.35690000  0.95240000  1
  Be  Be16  1  0.11840000  0.35690000  0.95240000  1
  Be  Be17  1  0.75000000  0.35390000  0.04600000  1
  Be  Be18  1  0.25000000  0.30790000  0.35390000  1
  Be  Be19  1  0.75000000  0.28490000  0.79910000  1
  Be  Be20  1  0.75000000  0.20090000  0.48580000  1
  Be  Be21  1  0.38160000  0.04760000  0.40450000  1
  Be  Be22  1  0.11840000  0.04760000  0.40450000  1
  Be  Be23  1  0.25000000  0.04600000  0.69210000  1
  P  P24  1  0.75000000  0.96283000  0.47479000  1
  P  P25  1  0.41019000  0.91918000  0.62043000  1
  P  P26  1  0.08981000  0.91918000  0.62043000  1
  P  P27  1  0.25000000  0.90626000  0.28302000  1
  P  P28  1  0.75000000  0.82772000  0.60193000  1
  P  P29  1  0.75000000  0.77421000  0.17228000  1
  P  P30  1  0.25000000  0.71698000  0.62324000  1
  P  P31  1  0.41019000  0.70125000  0.08082000  1
  P  P32  1  0.08981000  0.70125000  0.08082000  1
  P  P33  1  0.25000000  0.66666667  0.33333333  1
  P  P34  1  0.75000000  0.62324000  0.90626000  1
  P  P35  1  0.91019000  0.62043000  0.70125000  1
  P  P36  1  0.58981000  0.62043000  0.70125000  1
  P  P37  1  0.25000000  0.60193000  0.77421000  1
  P  P38  1  0.75000000  0.52521000  0.48804000  1
  P  P39  1  0.75000000  0.51196000  0.03717000  1
  P  P40  1  0.25000000  0.48804000  0.96283000  1
  P  P41  1  0.25000000  0.47479000  0.51196000  1
  P  P42  1  0.75000000  0.39807000  0.22579000  1
  P  P43  1  0.41019000  0.37957000  0.29875000  1
  P  P44  1  0.08981000  0.37957000  0.29875000  1
  P  P45  1  0.25000000  0.37676000  0.09374000  1
  P  P46  1  0.75000000  0.33333333  0.66666667  1
  P  P47  1  0.91019000  0.29875000  0.91918000  1
  P  P48  1  0.58981000  0.29875000  0.91918000  1
  P  P49  1  0.75000000  0.28302000  0.37676000  1
  P  P50  1  0.25000000  0.22579000  0.82772000  1
  P  P51  1  0.25000000  0.17228000  0.39807000  1
  P  P52  1  0.75000000  0.09374000  0.71698000  1
  P  P53  1  0.91019000  0.08082000  0.37957000  1
  P  P54  1  0.58981000  0.08082000  0.37957000  1
  P  P55  1  0.25000000  0.03717000  0.52521000  1
  H  H56  1  0.25000000  0.96230000  0.49600000  1
  H  H57  1  0.25000000  0.90050000  0.20170000  1
  H  H58  1  0.45350000  0.87450000  0.65610000  1
  H  H59  1  0.04650000  0.87450000  0.65610000  1
  H  H60  1  0.25000000  0.79830000  0.69880000  1
  H  H61  1  0.45350000  0.78160000  0.12550000  1
  H  H62  1  0.04650000  0.78160000  0.12550000  1
  H  H63  1  0.75000000  0.76320000  0.51730000  1
  H  H64  1  0.75000000  0.75410000  0.23680000  1
  H  H65  1  0.75000000  0.69880000  0.90050000  1
  H  H66  1  0.34190000  0.66666667  0.33333333  1
  H  H67  1  0.15810000  0.66666667  0.33333333  1
  H  H68  1  0.95350000  0.65610000  0.78160000  1
  H  H69  1  0.54650000  0.65610000  0.78160000  1
  H  H70  1  0.25000000  0.53370000  0.03770000  1
  H  H71  1  0.25000000  0.51730000  0.75410000  1
  H  H72  1  0.25000000  0.50400000  0.46630000  1
  H  H73  1  0.75000000  0.49600000  0.53370000  1
  H  H74  1  0.75000000  0.48270000  0.24590000  1
  H  H75  1  0.75000000  0.46630000  0.96230000  1
  H  H76  1  0.45350000  0.34390000  0.21840000  1
  H  H77  1  0.04650000  0.34390000  0.21840000  1
  H  H78  1  0.84190000  0.33333333  0.66666667  1
  H  H79  1  0.65810000  0.33333333  0.66666667  1
  H  H80  1  0.25000000  0.30120000  0.09950000  1
  H  H81  1  0.25000000  0.24590000  0.76320000  1
  H  H82  1  0.25000000  0.23680000  0.48270000  1
  H  H83  1  0.95350000  0.21840000  0.87450000  1
  H  H84  1  0.54650000  0.21840000  0.87450000  1
  H  H85  1  0.75000000  0.20170000  0.30120000  1
  H  H86  1  0.95350000  0.12550000  0.34390000  1
  H  H87  1  0.54650000  0.12550000  0.34390000  1
  H  H88  1  0.75000000  0.09950000  0.79830000  1
  H  H89  1  0.75000000  0.03770000  0.50400000  1
  O  O90  1  0.34830000  0.99130000  0.68730000  1
  O  O91  1  0.15170000  0.99130000  0.68730000  1
  O  O92  1  0.34520000  0.95283000  0.32860000  1
  O  O93  1  0.15480000  0.95283000  0.32860000  1
  O  O94  1  0.49730000  0.95060000  0.59000000  1
  O  O95  1  0.00270000  0.95060000  0.59000000  1
  O  O96  1  0.84440000  0.93910000  0.50474000  1
  O  O97  1  0.65560000  0.93910000  0.50474000  1
  O  O98  1  0.75000000  0.92470000  0.37880000  1
  O  O99  1  0.84410000  0.87870000  0.61490000  1
  O  O100  1  0.65590000  0.87870000  0.61490000  1
  O  O101  1  0.75000000  0.87040000  0.21310000  1
  O  O102  1  0.34990000  0.85577000  0.54297000  1
  O  O103  1  0.15010000  0.85577000  0.54297000  1
  O  O104  1  0.25000000  0.81740000  0.27050000  1
  O  O105  1  0.75000000  0.78690000  0.65730000  1
  O  O106  1  0.25000000  0.74770000  0.41150000  1
  O  O107  1  0.84410000  0.73620000  0.12130000  1
  O  O108  1  0.65590000  0.73620000  0.12130000  1
  O  O109  1  0.25000000  0.72950000  0.54690000  1
  O  O110  1  0.34830000  0.69600000  0.00870000  1
  O  O111  1  0.15170000  0.69600000  0.00870000  1
  O  O112  1  0.84830000  0.68730000  0.69600000  1
  O  O113  1  0.65170000  0.68730000  0.69600000  1
  O  O114  1  0.34990000  0.68720000  0.14423000  1
  O  O115  1  0.15010000  0.68720000  0.14423000  1
  O  O116  1  0.34520000  0.67140000  0.62423000  1
  O  O117  1  0.15480000  0.67140000  0.62423000  1
  O  O118  1  0.25000000  0.66380000  0.25230000  1
  O  O119  1  0.25000000  0.65730000  0.87040000  1
  O  O120  1  0.49730000  0.63940000  0.04940000  1
  O  O121  1  0.00270000  0.63940000  0.04940000  1
  O  O122  1  0.84520000  0.62423000  0.95283000  1
  O  O123  1  0.65480000  0.62423000  0.95283000  1
  O  O124  1  0.75000000  0.62120000  0.54590000  1
  O  O125  1  0.34410000  0.61490000  0.73620000  1
  O  O126  1  0.15590000  0.61490000  0.73620000  1
  O  O127  1  0.99730000  0.59000000  0.63940000  1
  O  O128  1  0.50270000  0.59000000  0.63940000  1
  O  O129  1  0.25000000  0.58850000  0.33620000  1
  O  O130  1  0.84440000  0.56564000  0.06090000  1
  O  O131  1  0.65560000  0.56564000  0.06090000  1
  O  O132  1  0.75000000  0.54690000  0.81740000  1
  O  O133  1  0.25000000  0.54590000  0.92470000  1
  O  O134  1  0.84990000  0.54297000  0.68720000  1
  O  O135  1  0.65010000  0.54297000  0.68720000  1
  O  O136  1  0.34440000  0.50474000  0.56564000  1
  O  O137  1  0.15560000  0.50474000  0.56564000  1
  O  O138  1  0.84440000  0.49526000  0.43436000  1
  O  O139  1  0.65560000  0.49526000  0.43436000  1
  O  O140  1  0.34990000  0.45703000  0.31280000  1
  O  O141  1  0.15010000  0.45703000  0.31280000  1
  O  O142  1  0.75000000  0.45410000  0.07530000  1
  O  O143  1  0.25000000  0.45310000  0.18260000  1
  O  O144  1  0.34440000  0.43436000  0.93910000  1
  O  O145  1  0.15560000  0.43436000  0.93910000  1
  O  O146  1  0.75000000  0.41150000  0.66380000  1
  O  O147  1  0.49730000  0.41000000  0.36060000  1
  O  O148  1  0.00270000  0.41000000  0.36060000  1
  O  O149  1  0.84410000  0.38510000  0.26380000  1
  O  O150  1  0.65590000  0.38510000  0.26380000  1
  O  O151  1  0.25000000  0.37880000  0.45410000  1
  O  O152  1  0.34520000  0.37577000  0.04717000  1
  O  O153  1  0.15480000  0.37577000  0.04717000  1
  O  O154  1  0.99730000  0.36060000  0.95060000  1
  O  O155  1  0.50270000  0.36060000  0.95060000  1
  O  O156  1  0.75000000  0.34270000  0.12960000  1
  O  O157  1  0.75000000  0.33620000  0.74770000  1
  O  O158  1  0.84520000  0.32860000  0.37577000  1
  O  O159  1  0.65480000  0.32860000  0.37577000  1
  O  O160  1  0.84990000  0.31280000  0.85577000  1
  O  O161  1  0.65010000  0.31280000  0.85577000  1
  O  O162  1  0.34830000  0.31270000  0.30400000  1
  O  O163  1  0.15170000  0.31270000  0.30400000  1
  O  O164  1  0.84830000  0.30400000  0.99130000  1
  O  O165  1  0.65170000  0.30400000  0.99130000  1
  O  O166  1  0.75000000  0.27050000  0.45310000  1
  O  O167  1  0.34410000  0.26380000  0.87870000  1
  O  O168  1  0.15590000  0.26380000  0.87870000  1
  O  O169  1  0.75000000  0.25230000  0.58850000  1
  O  O170  1  0.25000000  0.21310000  0.34270000  1
  O  O171  1  0.75000000  0.18260000  0.72950000  1
  O  O172  1  0.84990000  0.14423000  0.45703000  1
  O  O173  1  0.65010000  0.14423000  0.45703000  1
  O  O174  1  0.25000000  0.12960000  0.78690000  1
  O  O175  1  0.34410000  0.12130000  0.38510000  1
  O  O176  1  0.15590000  0.12130000  0.38510000  1
  O  O177  1  0.25000000  0.07530000  0.62120000  1
  O  O178  1  0.34440000  0.06090000  0.49526000  1
  O  O179  1  0.15560000  0.06090000  0.49526000  1
  O  O180  1  0.99730000  0.04940000  0.41000000  1
  O  O181  1  0.50270000  0.04940000  0.41000000  1
  O  O182  1  0.84520000  0.04717000  0.67140000  1
  O  O183  1  0.65480000  0.04717000  0.67140000  1
  O  O184  1  0.84830000  0.00870000  0.31270000  1
  O  O185  1  0.65170000  0.00870000  0.31270000  1
