# generated using pymatgen
data_Al2Co(PO4)3
_symmetry_space_group_name_H-M   'P 1'
_cell_length_a   13.06300000
_cell_length_b   14.71800000
_cell_length_c   15.22900000
_cell_angle_alpha   110.92000000
_cell_angle_beta   90.00000000
_cell_angle_gamma   90.00000000
_symmetry_Int_Tables_number   1
_chemical_formula_structural   Al2Co(PO4)3
_chemical_formula_sum   'Al16 Co8 P24 O96'
_cell_volume   2734.93579516
_cell_formula_units_Z   8
loop_
 _symmetry_equiv_pos_site_id
 _symmetry_equiv_pos_as_xyz
  1  'x, y, z'
loop_
 _atom_site_type_symbol
 _atom_site_label
 _atom_site_symmetry_multiplicity
 _atom_site_fract_x
 _atom_site_fract_y
 _atom_site_fract_z
 _atom_site_occupancy
  Al  Al0  1  0.69088000  0.87526000  0.12366000  1
  Al  Al1  1  0.30912000  0.87526000  0.62366000  1
  Al  Al2  1  0.62785000  0.75080000  0.41873000  1
  Al  Al3  1  0.12785000  0.74920000  0.08127000  1
  Al  Al4  1  0.80912000  0.62474000  0.87634000  1
  Al  Al5  1  0.19088000  0.62474000  0.37634000  1
  Al  Al6  1  0.89416000  0.58341000  0.16313000  1
  Al  Al7  1  0.10584000  0.58341000  0.66313000  1
  Al  Al8  1  0.89416000  0.41659000  0.33687000  1
  Al  Al9  1  0.10584000  0.41659000  0.83687000  1
  Al  Al10  1  0.80912000  0.37526000  0.62366000  1
  Al  Al11  1  0.19088000  0.37526000  0.12366000  1
  Al  Al12  1  0.12785000  0.25080000  0.41873000  1
  Al  Al13  1  0.62785000  0.24920000  0.08127000  1
  Al  Al14  1  0.69088000  0.12474000  0.37634000  1
  Al  Al15  1  0.30912000  0.12474000  0.87634000  1
  Co  Co16  1  0.60584000  0.91659000  0.83687000  1
  Co  Co17  1  0.39416000  0.91659000  0.33687000  1
  Co  Co18  1  0.37215000  0.75080000  0.91873000  1
  Co  Co19  1  0.87215000  0.74920000  0.58127000  1
  Co  Co20  1  0.87215000  0.25080000  0.91873000  1
  Co  Co21  1  0.37215000  0.24920000  0.58127000  1
  Co  Co22  1  0.60584000  0.08341000  0.66313000  1
  Co  Co23  1  0.39416000  0.08341000  0.16313000  1
  P  P24  1  0.63319000  0.90870000  0.32949000  1
  P  P25  1  0.36681000  0.90870000  0.82949000  1
  P  P26  1  0.68582000  0.87618000  0.62816000  1
  P  P27  1  0.31418000  0.87618000  0.12816000  1
  P  P28  1  0.61202000  0.75360000  0.92122000  1
  P  P29  1  0.38798000  0.75360000  0.42122000  1
  P  P30  1  0.88798000  0.74640000  0.07878000  1
  P  P31  1  0.11202000  0.74640000  0.57878000  1
  P  P32  1  0.81418000  0.62382000  0.37184000  1
  P  P33  1  0.18582000  0.62382000  0.87184000  1
  P  P34  1  0.86681000  0.59130000  0.67051000  1
  P  P35  1  0.13319000  0.59130000  0.17051000  1
  P  P36  1  0.86681000  0.40870000  0.82949000  1
  P  P37  1  0.13319000  0.40870000  0.32949000  1
  P  P38  1  0.81418000  0.37618000  0.12816000  1
  P  P39  1  0.18582000  0.37618000  0.62816000  1
  P  P40  1  0.88798000  0.25360000  0.42122000  1
  P  P41  1  0.11202000  0.25360000  0.92122000  1
  P  P42  1  0.61202000  0.24640000  0.57878000  1
  P  P43  1  0.38798000  0.24640000  0.07878000  1
  P  P44  1  0.68582000  0.12382000  0.87184000  1
  P  P45  1  0.31418000  0.12382000  0.37184000  1
  P  P46  1  0.63319000  0.09130000  0.17051000  1
  P  P47  1  0.36681000  0.09130000  0.67051000  1
  O  O48  1  0.70090000  0.99890000  0.35960000  1
  O  O49  1  0.29910000  0.99890000  0.85960000  1
  O  O50  1  0.67270000  0.97360000  0.61380000  1
  O  O51  1  0.32730000  0.97360000  0.11380000  1
  O  O52  1  0.52550000  0.93710000  0.36320000  1
  O  O53  1  0.47450000  0.93710000  0.86320000  1
  O  O54  1  0.62920000  0.87650000  0.71480000  1
  O  O55  1  0.37080000  0.87650000  0.21480000  1
  O  O56  1  0.80060000  0.86210000  0.63660000  1
  O  O57  1  0.19940000  0.86210000  0.13660000  1
  O  O58  1  0.63100000  0.85930000  0.22300000  1
  O  O59  1  0.36900000  0.85930000  0.72300000  1
  O  O60  1  0.67600000  0.84000000  0.37300000  1
  O  O61  1  0.32400000  0.84000000  0.87300000  1
  O  O62  1  0.82060000  0.83500000  0.10920000  1
  O  O63  1  0.17940000  0.83500000  0.60920000  1
  O  O64  1  0.65160000  0.82680000  0.87980000  1
  O  O65  1  0.34840000  0.82680000  0.37980000  1
  O  O66  1  0.61390000  0.80040000  0.02760000  1
  O  O67  1  0.38610000  0.80040000  0.52760000  1
  O  O68  1  0.64290000  0.79250000  0.54660000  1
  O  O69  1  0.35710000  0.79250000  0.04660000  1
  O  O70  1  0.99380000  0.77880000  0.11130000  1
  O  O71  1  0.00620000  0.77880000  0.61130000  1
  O  O72  1  0.50620000  0.72120000  0.88870000  1
  O  O73  1  0.49380000  0.72120000  0.38870000  1
  O  O74  1  0.85710000  0.70750000  0.45340000  1
  O  O75  1  0.14290000  0.70750000  0.95340000  1
  O  O76  1  0.88610000  0.69960000  0.97240000  1
  O  O77  1  0.11390000  0.69960000  0.47240000  1
  O  O78  1  0.84840000  0.67320000  0.12020000  1
  O  O79  1  0.15160000  0.67320000  0.62020000  1
  O  O80  1  0.67940000  0.66500000  0.89080000  1
  O  O81  1  0.32060000  0.66500000  0.39080000  1
  O  O82  1  0.82400000  0.66000000  0.62700000  1
  O  O83  1  0.17600000  0.66000000  0.12700000  1
  O  O84  1  0.86900000  0.64070000  0.77700000  1
  O  O85  1  0.13100000  0.64070000  0.27700000  1
  O  O86  1  0.69940000  0.63790000  0.36340000  1
  O  O87  1  0.30060000  0.63790000  0.86340000  1
  O  O88  1  0.87080000  0.62350000  0.28520000  1
  O  O89  1  0.12920000  0.62350000  0.78520000  1
  O  O90  1  0.97450000  0.56290000  0.63680000  1
  O  O91  1  0.02550000  0.56290000  0.13680000  1
  O  O92  1  0.82730000  0.52640000  0.38620000  1
  O  O93  1  0.17270000  0.52640000  0.88620000  1
  O  O94  1  0.79910000  0.50110000  0.64040000  1
  O  O95  1  0.20090000  0.50110000  0.14040000  1
  O  O96  1  0.79910000  0.49890000  0.85960000  1
  O  O97  1  0.20090000  0.49890000  0.35960000  1
  O  O98  1  0.82730000  0.47360000  0.11380000  1
  O  O99  1  0.17270000  0.47360000  0.61380000  1
  O  O100  1  0.97450000  0.43710000  0.86320000  1
  O  O101  1  0.02550000  0.43710000  0.36320000  1
  O  O102  1  0.87080000  0.37650000  0.21480000  1
  O  O103  1  0.12920000  0.37650000  0.71480000  1
  O  O104  1  0.69940000  0.36210000  0.13660000  1
  O  O105  1  0.30060000  0.36210000  0.63660000  1
  O  O106  1  0.86900000  0.35930000  0.72300000  1
  O  O107  1  0.13100000  0.35930000  0.22300000  1
  O  O108  1  0.82400000  0.34000000  0.87300000  1
  O  O109  1  0.17600000  0.34000000  0.37300000  1
  O  O110  1  0.67940000  0.33500000  0.60920000  1
  O  O111  1  0.32060000  0.33500000  0.10920000  1
  O  O112  1  0.84840000  0.32680000  0.37980000  1
  O  O113  1  0.15160000  0.32680000  0.87980000  1
  O  O114  1  0.88610000  0.30040000  0.52760000  1
  O  O115  1  0.11390000  0.30040000  0.02760000  1
  O  O116  1  0.85710000  0.29250000  0.04660000  1
  O  O117  1  0.14290000  0.29250000  0.54660000  1
  O  O118  1  0.50620000  0.27880000  0.61130000  1
  O  O119  1  0.49380000  0.27880000  0.11130000  1
  O  O120  1  0.99380000  0.22120000  0.38870000  1
  O  O121  1  0.00620000  0.22120000  0.88870000  1
  O  O122  1  0.64290000  0.20750000  0.95340000  1
  O  O123  1  0.35710000  0.20750000  0.45340000  1
  O  O124  1  0.61390000  0.19960000  0.47240000  1
  O  O125  1  0.38610000  0.19960000  0.97240000  1
  O  O126  1  0.65160000  0.17320000  0.62020000  1
  O  O127  1  0.34840000  0.17320000  0.12020000  1
  O  O128  1  0.82060000  0.16500000  0.39080000  1
  O  O129  1  0.17940000  0.16500000  0.89080000  1
  O  O130  1  0.67600000  0.16000000  0.12700000  1
  O  O131  1  0.32400000  0.16000000  0.62700000  1
  O  O132  1  0.63100000  0.14070000  0.27700000  1
  O  O133  1  0.36900000  0.14070000  0.77700000  1
  O  O134  1  0.80060000  0.13790000  0.86340000  1
  O  O135  1  0.19940000  0.13790000  0.36340000  1
  O  O136  1  0.62920000  0.12350000  0.78520000  1
  O  O137  1  0.37080000  0.12350000  0.28520000  1
  O  O138  1  0.52550000  0.06290000  0.13680000  1
  O  O139  1  0.47450000  0.06290000  0.63680000  1
  O  O140  1  0.67270000  0.02640000  0.88620000  1
  O  O141  1  0.32730000  0.02640000  0.38620000  1
  O  O142  1  0.70090000  0.00110000  0.14040000  1
  O  O143  1  0.29910000  0.00110000  0.64040000  1
