# generated using pymatgen
data_Na2Zn3H80(C25O7)4
_symmetry_space_group_name_H-M   'P 1'
_cell_length_a   17.07500000
_cell_length_b   20.20500000
_cell_length_c   20.51900000
_cell_angle_alpha   90.00000000
_cell_angle_beta   90.00000000
_cell_angle_gamma   89.88000000
_symmetry_Int_Tables_number   1
_chemical_formula_structural   Na2Zn3H80(C25O7)4
_chemical_formula_sum   'Na4 Zn6 H160 C200 O56'
_cell_volume   7079.04716851
_cell_formula_units_Z   2
loop_
 _symmetry_equiv_pos_site_id
 _symmetry_equiv_pos_as_xyz
  1  'x, y, z'
loop_
 _atom_site_type_symbol
 _atom_site_label
 _atom_site_symmetry_multiplicity
 _atom_site_fract_x
 _atom_site_fract_y
 _atom_site_fract_z
 _atom_site_occupancy
  Na  Na0  1  0.89050000  0.26700000  0.85550000  1
  Na  Na1  1  0.60950000  0.23300000  0.35550000  1
  Na  Na2  1  0.39050000  0.76700000  0.64450000  1
  Na  Na3  1  0.10950000  0.73300000  0.14450000  1
  Zn  Zn4  1  0.00000000  0.00000000  0.50000000  1
  Zn  Zn5  1  0.84887000  0.87481000  0.50557000  1
  Zn  Zn6  1  0.65113000  0.62519000  0.00557000  1
  Zn  Zn7  1  0.50000000  0.50000000  1.00000000  1
  Zn  Zn8  1  0.34887000  0.37481000  0.99443000  1
  Zn  Zn9  1  0.15113000  0.12519000  0.49443000  1
  H  H10  1  0.99960000  0.74420000  0.00410000  1
  H  H11  1  0.99160000  0.24880000  0.22160000  1
  H  H12  1  0.98510000  0.59860000  0.17060000  1
  H  H13  1  0.97730000  0.67870000  0.30970000  1
  H  H14  1  0.96170000  0.03380000  0.29970000  1
  H  H15  1  0.96120000  0.77930000  0.67540000  1
  H  H16  1  0.95340000  0.84500000  0.03030000  1
  H  H17  1  0.95270000  0.08630000  0.09210000  1
  H  H18  1  0.95120000  0.36860000  0.70620000  1
  H  H19  1  0.94450000  0.23180000  0.68340000  1
  H  H20  1  0.92550000  0.89220000  0.18350000  1
  H  H21  1  0.91590000  0.62500000  0.21580000  1
  H  H22  1  0.91560000  0.81900000  0.09630000  1
  H  H23  1  0.91450000  0.06180000  0.19680000  1
  H  H24  1  0.91250000  0.87370000  0.86550000  1
  H  H25  1  0.91220000  0.73230000  0.02650000  1
  H  H26  1  0.90750000  0.97010000  0.83400000  1
  H  H27  1  0.90310000  0.07560000  0.64270000  1
  H  H28  1  0.89950000  0.36840000  0.07530000  1
  H  H29  1  0.89840000  0.28850000  0.64530000  1
  H  H30  1  0.89740000  0.71520000  0.14690000  1
  H  H31  1  0.88890000  0.64890000  0.10610000  1
  H  H32  1  0.88310000  0.87420000  0.28990000  1
  H  H33  1  0.87920000  0.26470000  0.15640000  1
  H  H34  1  0.86560000  0.76650000  0.88060000  1
  H  H35  1  0.86080000  0.13480000  0.50710000  1
  H  H36  1  0.86070000  0.05750000  0.74920000  1
  H  H37  1  0.85510000  0.01650000  0.02030000  1
  H  H38  1  0.83290000  0.46750000  0.05700000  1
  H  H39  1  0.83030000  0.32810000  0.36640000  1
  H  H40  1  0.81090000  0.18650000  0.70760000  1
  H  H41  1  0.81060000  0.30260000  0.25400000  1
  H  H42  1  0.80760000  0.25550000  0.38940000  1
  H  H43  1  0.79420000  0.23390000  0.52540000  1
  H  H44  1  0.79240000  0.22800000  0.27380000  1
  H  H45  1  0.78260000  0.33000000  0.47330000  1
  H  H46  1  0.77410000  0.93840000  0.01180000  1
  H  H47  1  0.77280000  0.66880000  0.52690000  1
  H  H48  1  0.77230000  0.12780000  0.92670000  1
  H  H49  1  0.76900000  0.24900000  0.67640000  1
  H  H50  1  0.73100000  0.25100000  0.17640000  1
  H  H51  1  0.72770000  0.37220000  0.42670000  1
  H  H52  1  0.72720000  0.83120000  0.02690000  1
  H  H53  1  0.72590000  0.56160000  0.51180000  1
  H  H54  1  0.71740000  0.17000000  0.97330000  1
  H  H55  1  0.70760000  0.27200000  0.77380000  1
  H  H56  1  0.70580000  0.26610000  0.02540000  1
  H  H57  1  0.69240000  0.24450000  0.88940000  1
  H  H58  1  0.68940000  0.19740000  0.75400000  1
  H  H59  1  0.68910000  0.31350000  0.20760000  1
  H  H60  1  0.66970000  0.17190000  0.86640000  1
  H  H61  1  0.66710000  0.03250000  0.55700000  1
  H  H62  1  0.64490000  0.48350000  0.52030000  1
  H  H63  1  0.63930000  0.44250000  0.24920000  1
  H  H64  1  0.63920000  0.36520000  0.00710000  1
  H  H65  1  0.63440000  0.73350000  0.38060000  1
  H  H66  1  0.62080000  0.23530000  0.65640000  1
  H  H67  1  0.61690000  0.62580000  0.78990000  1
  H  H68  1  0.61110000  0.85110000  0.60610000  1
  H  H69  1  0.60260000  0.78480000  0.64690000  1
  H  H70  1  0.60160000  0.21150000  0.14530000  1
  H  H71  1  0.60050000  0.13160000  0.57530000  1
  H  H72  1  0.59690000  0.42440000  0.14270000  1
  H  H73  1  0.59250000  0.52990000  0.33400000  1
  H  H74  1  0.58780000  0.76770000  0.52650000  1
  H  H75  1  0.58750000  0.62630000  0.36550000  1
  H  H76  1  0.58550000  0.43820000  0.69680000  1
  H  H77  1  0.58440000  0.68100000  0.59630000  1
  H  H78  1  0.58410000  0.87500000  0.71580000  1
  H  H79  1  0.57450000  0.60780000  0.68350000  1
  H  H80  1  0.55550000  0.26820000  0.18340000  1
  H  H81  1  0.54880000  0.13140000  0.20620000  1
  H  H82  1  0.54730000  0.41370000  0.59210000  1
  H  H83  1  0.54660000  0.65500000  0.53030000  1
  H  H84  1  0.53880000  0.72070000  0.17540000  1
  H  H85  1  0.53830000  0.46620000  0.79970000  1
  H  H86  1  0.52270000  0.82130000  0.80970000  1
  H  H87  1  0.51490000  0.90140000  0.67060000  1
  H  H88  1  0.50840000  0.25120000  0.72160000  1
  H  H89  1  0.50040000  0.75580000  0.50410000  1
  H  H90  1  0.49960000  0.24420000  0.49590000  1
  H  H91  1  0.49160000  0.74880000  0.27840000  1
  H  H92  1  0.48510000  0.09860000  0.32940000  1
  H  H93  1  0.47730000  0.17870000  0.19030000  1
  H  H94  1  0.46170000  0.53380000  0.20030000  1
  H  H95  1  0.46120000  0.27930000  0.82460000  1
  H  H96  1  0.45340000  0.34500000  0.46970000  1
  H  H97  1  0.45270000  0.58630000  0.40790000  1
  H  H98  1  0.45120000  0.86860000  0.79380000  1
  H  H99  1  0.44450000  0.73180000  0.81660000  1
  H  H100  1  0.42550000  0.39220000  0.31650000  1
  H  H101  1  0.41590000  0.12500000  0.28420000  1
  H  H102  1  0.41560000  0.31900000  0.40370000  1
  H  H103  1  0.41450000  0.56180000  0.30320000  1
  H  H104  1  0.41250000  0.37370000  0.63450000  1
  H  H105  1  0.41220000  0.23230000  0.47350000  1
  H  H106  1  0.40750000  0.47010000  0.66600000  1
  H  H107  1  0.40310000  0.57560000  0.85730000  1
  H  H108  1  0.39950000  0.86840000  0.42470000  1
  H  H109  1  0.39840000  0.78850000  0.85470000  1
  H  H110  1  0.39740000  0.21520000  0.35310000  1
  H  H111  1  0.38890000  0.14890000  0.39390000  1
  H  H112  1  0.38310000  0.37420000  0.21010000  1
  H  H113  1  0.37920000  0.76470000  0.34360000  1
  H  H114  1  0.36560000  0.26650000  0.61940000  1
  H  H115  1  0.36080000  0.63480000  0.99290000  1
  H  H116  1  0.36070000  0.55750000  0.75080000  1
  H  H117  1  0.35510000  0.51650000  0.47970000  1
  H  H118  1  0.33290000  0.96750000  0.44300000  1
  H  H119  1  0.33030000  0.82810000  0.13360000  1
  H  H120  1  0.31090000  0.68650000  0.79240000  1
  H  H121  1  0.31060000  0.80260000  0.24600000  1
  H  H122  1  0.30760000  0.75550000  0.11060000  1
  H  H123  1  0.29420000  0.73390000  0.97460000  1
  H  H124  1  0.29240000  0.72800000  0.22620000  1
  H  H125  1  0.28260000  0.83000000  0.02670000  1
  H  H126  1  0.27410000  0.43840000  0.48820000  1
  H  H127  1  0.27280000  0.16880000  0.97310000  1
  H  H128  1  0.27230000  0.62780000  0.57330000  1
  H  H129  1  0.26900000  0.74900000  0.82360000  1
  H  H130  1  0.23100000  0.75100000  0.32360000  1
  H  H131  1  0.22770000  0.87220000  0.07330000  1
  H  H132  1  0.22720000  0.33120000  0.47310000  1
  H  H133  1  0.22590000  0.06160000  0.98820000  1
  H  H134  1  0.21740000  0.67000000  0.52670000  1
  H  H135  1  0.20760000  0.77200000  0.72620000  1
  H  H136  1  0.20580000  0.76610000  0.47460000  1
  H  H137  1  0.19240000  0.74450000  0.61060000  1
  H  H138  1  0.18940000  0.69740000  0.74600000  1
  H  H139  1  0.18910000  0.81350000  0.29240000  1
  H  H140  1  0.16970000  0.67190000  0.63360000  1
  H  H141  1  0.16710000  0.53250000  0.94300000  1
  H  H142  1  0.14490000  0.98350000  0.97970000  1
  H  H143  1  0.13930000  0.94250000  0.25080000  1
  H  H144  1  0.13920000  0.86520000  0.49290000  1
  H  H145  1  0.13440000  0.23350000  0.11940000  1
  H  H146  1  0.12080000  0.73530000  0.84360000  1
  H  H147  1  0.11690000  0.12580000  0.71010000  1
  H  H148  1  0.11110000  0.35110000  0.89390000  1
  H  H149  1  0.10260000  0.28480000  0.85310000  1
  H  H150  1  0.10160000  0.71150000  0.35470000  1
  H  H151  1  0.10050000  0.63160000  0.92470000  1
  H  H152  1  0.09690000  0.92440000  0.35730000  1
  H  H153  1  0.09250000  0.02990000  0.16600000  1
  H  H154  1  0.08780000  0.26770000  0.97350000  1
  H  H155  1  0.08750000  0.12630000  0.13450000  1
  H  H156  1  0.08550000  0.93820000  0.80320000  1
  H  H157  1  0.08440000  0.18100000  0.90370000  1
  H  H158  1  0.08410000  0.37500000  0.78420000  1
  H  H159  1  0.07450000  0.10780000  0.81650000  1
  H  H160  1  0.05550000  0.76820000  0.31660000  1
  H  H161  1  0.04880000  0.63140000  0.29380000  1
  H  H162  1  0.04730000  0.91370000  0.90790000  1
  H  H163  1  0.04660000  0.15500000  0.96970000  1
  H  H164  1  0.03880000  0.22070000  0.32460000  1
  H  H165  1  0.03830000  0.96620000  0.70030000  1
  H  H166  1  0.02270000  0.32130000  0.69030000  1
  H  H167  1  0.01490000  0.40140000  0.82940000  1
  H  H168  1  0.00840000  0.75120000  0.77840000  1
  H  H169  1  0.00040000  0.25580000  0.99590000  1
  C  C170  1  0.99520000  0.87550000  0.67790000  1
  C  C171  1  0.98630000  0.81130000  0.70120000  1
  C  C172  1  0.98590000  0.89760000  0.33390000  1
  C  C173  1  0.98560000  0.20540000  0.23740000  1
  C  C174  1  0.97290000  0.32440000  0.71390000  1
  C  C175  1  0.96770000  0.07710000  0.28400000  1
  C  C176  1  0.96630000  0.89340000  0.61630000  1
  C  C177  1  0.96430000  0.74520000  0.04180000  1
  C  C178  1  0.96350000  0.08090000  0.79310000  1
  C  C179  1  0.96170000  0.89040000  0.39800000  1
  C  C180  1  0.96020000  0.81410000  0.06660000  1
  C  C181  1  0.96010000  0.89870000  0.21850000  1
  C  C182  1  0.95800000  0.63840000  0.18600000  1
  C  C183  1  0.94850000  0.15800000  0.19930000  1
  C  C184  1  0.93960000  0.09390000  0.22260000  1
  C  C185  1  0.93770000  0.08210000  0.67780000  1
  C  C186  1  0.93600000  0.06430000  0.85870000  1
  C  C187  1  0.93500000  0.10990000  0.90950000  1
  C  C188  1  0.93480000  0.88800000  0.28200000  1
  C  C189  1  0.92690000  0.12670000  0.08450000  1
  C  C190  1  0.92580000  0.67600000  0.13060000  1
  C  C191  1  0.92120000  0.17340000  0.13410000  1
  C  C192  1  0.91870000  0.27490000  0.68790000  1
  C  C193  1  0.91240000  0.07130000  0.74130000  1
  C  C194  1  0.90680000  0.00090000  0.86830000  1
  C  C195  1  0.90470000  0.09200000  0.96990000  1
  C  C196  1  0.89450000  0.13990000  0.02370000  1
  C  C197  1  0.88300000  0.23310000  0.12290000  1
  C  C198  1  0.87660000  0.98300000  0.92870000  1
  C  C199  1  0.87560000  0.02860000  0.97950000  1
  C  C200  1  0.87510000  0.86510000  0.89800000  1
  C  C201  1  0.85640000  0.19960000  0.01250000  1
  C  C202  1  0.85070000  0.24630000  0.06210000  1
  C  C203  1  0.84780000  0.91640000  0.93720000  1
  C  C204  1  0.84710000  0.80120000  0.90700000  1
  C  C205  1  0.84700000  0.36780000  0.06160000  1
  C  C206  1  0.81050000  0.01660000  0.51620000  1
  C  C207  1  0.80910000  0.30770000  0.05210000  1
  C  C208  1  0.80830000  0.13420000  0.52090000  1
  C  C209  1  0.80730000  0.42680000  0.05070000  1
  C  C210  1  0.79250000  0.90370000  0.98530000  1
  C  C211  1  0.79190000  0.78850000  0.95520000  1
  C  C212  1  0.79170000  0.23130000  0.71670000  1
  C  C213  1  0.78660000  0.29950000  0.37920000  1
  C  C214  1  0.77040000  0.07410000  0.53030000  1
  C  C215  1  0.76910000  0.27190000  0.26700000  1
  C  C216  1  0.76850000  0.19330000  0.53180000  1
  C  C217  1  0.76500000  0.72470000  0.96430000  1
  C  C218  1  0.76460000  0.83980000  0.99430000  1
  C  C219  1  0.75390000  0.17270000  0.93660000  1
  C  C220  1  0.74610000  0.32730000  0.43660000  1
  C  C221  1  0.73540000  0.66020000  0.49430000  1
  C  C222  1  0.73500000  0.77530000  0.46430000  1
  C  C223  1  0.73150000  0.30670000  0.03180000  1
  C  C224  1  0.73090000  0.22810000  0.76700000  1
  C  C225  1  0.72960000  0.42590000  0.03030000  1
  C  C226  1  0.71340000  0.20050000  0.87920000  1
  C  C227  1  0.70830000  0.26870000  0.21670000  1
  C  C228  1  0.70810000  0.71150000  0.45520000  1
  C  C229  1  0.70750000  0.59630000  0.48530000  1
  C  C230  1  0.69270000  0.07320000  0.55070000  1
  C  C231  1  0.69170000  0.36580000  0.02090000  1
  C  C232  1  0.69090000  0.19230000  0.55210000  1
  C  C233  1  0.68950000  0.48340000  0.01620000  1
  C  C234  1  0.65300000  0.13220000  0.56160000  1
  C  C235  1  0.65290000  0.69880000  0.40700000  1
  C  C236  1  0.65220000  0.58360000  0.43720000  1
  C  C237  1  0.64930000  0.25370000  0.56210000  1
  C  C238  1  0.64360000  0.30040000  0.51250000  1
  C  C239  1  0.62490000  0.63490000  0.39800000  1
  C  C240  1  0.62440000  0.47140000  0.47950000  1
  C  C241  1  0.62340000  0.51700000  0.42870000  1
  C  C242  1  0.61700000  0.26690000  0.62290000  1
  C  C243  1  0.60550000  0.36010000  0.52370000  1
  C  C244  1  0.59530000  0.40800000  0.46990000  1
  C  C245  1  0.59320000  0.49910000  0.36830000  1
  C  C246  1  0.58760000  0.42870000  0.24130000  1
  C  C247  1  0.58130000  0.22510000  0.18790000  1
  C  C248  1  0.57880000  0.32660000  0.63410000  1
  C  C249  1  0.57420000  0.82400000  0.63060000  1
  C  C250  1  0.57310000  0.37330000  0.58450000  1
  C  C251  1  0.56520000  0.61200000  0.78200000  1
  C  C252  1  0.56500000  0.39010000  0.40950000  1
  C  C253  1  0.56400000  0.43570000  0.35870000  1
  C  C254  1  0.56230000  0.41790000  0.17780000  1
  C  C255  1  0.56040000  0.40610000  0.72260000  1
  C  C256  1  0.55150000  0.34200000  0.69930000  1
  C  C257  1  0.54200000  0.86160000  0.68600000  1
  C  C258  1  0.53990000  0.60130000  0.71850000  1
  C  C259  1  0.53980000  0.68590000  0.56660000  1
  C  C260  1  0.53830000  0.60960000  0.89800000  1
  C  C261  1  0.53650000  0.41910000  0.29310000  1
  C  C262  1  0.53570000  0.75480000  0.54180000  1
  C  C263  1  0.53370000  0.60660000  0.11630000  1
  C  C264  1  0.53230000  0.42290000  0.78400000  1
  C  C265  1  0.52710000  0.17560000  0.21390000  1
  C  C266  1  0.51440000  0.29460000  0.73740000  1
  C  C267  1  0.51410000  0.60240000  0.83390000  1
  C  C268  1  0.51370000  0.68870000  0.20120000  1
  C  C269  1  0.50480000  0.62450000  0.17790000  1
  C  C270  1  0.49520000  0.37550000  0.82210000  1
  C  C271  1  0.48630000  0.31130000  0.79880000  1
  C  C272  1  0.48590000  0.39760000  0.16610000  1
  C  C273  1  0.48560000  0.70540000  0.26260000  1
  C  C274  1  0.47290000  0.82440000  0.78610000  1
  C  C275  1  0.46770000  0.57710000  0.21600000  1
  C  C276  1  0.46630000  0.39340000  0.88370000  1
  C  C277  1  0.46430000  0.24520000  0.45820000  1
  C  C278  1  0.46350000  0.58090000  0.70690000  1
  C  C279  1  0.46170000  0.39040000  0.10200000  1
  C  C280  1  0.46020000  0.31410000  0.43340000  1
  C  C281  1  0.46010000  0.39870000  0.28150000  1
  C  C282  1  0.45800000  0.13840000  0.31400000  1
  C  C283  1  0.44850000  0.65800000  0.30070000  1
  C  C284  1  0.43960000  0.59390000  0.27740000  1
  C  C285  1  0.43770000  0.58210000  0.82220000  1
  C  C286  1  0.43600000  0.56430000  0.64130000  1
  C  C287  1  0.43500000  0.60990000  0.59050000  1
  C  C288  1  0.43480000  0.38800000  0.21800000  1
  C  C289  1  0.42690000  0.62670000  0.41550000  1
  C  C290  1  0.42580000  0.17600000  0.36940000  1
  C  C291  1  0.42120000  0.67340000  0.36590000  1
  C  C292  1  0.41870000  0.77490000  0.81210000  1
  C  C293  1  0.41240000  0.57130000  0.75870000  1
  C  C294  1  0.40680000  0.50090000  0.63170000  1
  C  C295  1  0.40470000  0.59200000  0.53010000  1
  C  C296  1  0.39450000  0.63990000  0.47630000  1
  C  C297  1  0.38300000  0.73310000  0.37710000  1
  C  C298  1  0.37660000  0.48300000  0.57130000  1
  C  C299  1  0.37560000  0.52860000  0.52050000  1
  C  C300  1  0.37510000  0.36510000  0.60200000  1
  C  C301  1  0.35640000  0.69960000  0.48750000  1
  C  C302  1  0.35070000  0.74630000  0.43790000  1
  C  C303  1  0.34780000  0.41640000  0.56280000  1
  C  C304  1  0.34710000  0.30120000  0.59300000  1
  C  C305  1  0.34700000  0.86780000  0.43840000  1
  C  C306  1  0.31050000  0.51660000  0.98380000  1
  C  C307  1  0.30910000  0.80770000  0.44790000  1
  C  C308  1  0.30830000  0.63420000  0.97910000  1
  C  C309  1  0.30730000  0.92680000  0.44930000  1
  C  C310  1  0.29250000  0.40370000  0.51470000  1
  C  C311  1  0.29190000  0.28850000  0.54480000  1
  C  C312  1  0.29170000  0.73130000  0.78330000  1
  C  C313  1  0.28660000  0.79950000  0.12080000  1
  C  C314  1  0.27040000  0.57410000  0.96970000  1
  C  C315  1  0.26910000  0.77190000  0.23300000  1
  C  C316  1  0.26850000  0.69330000  0.96820000  1
  C  C317  1  0.26500000  0.22470000  0.53570000  1
  C  C318  1  0.26460000  0.33980000  0.50570000  1
  C  C319  1  0.25390000  0.67270000  0.56340000  1
  C  C320  1  0.24610000  0.82730000  0.06340000  1
  C  C321  1  0.23540000  0.16020000  0.00570000  1
  C  C322  1  0.23500000  0.27530000  0.03570000  1
  C  C323  1  0.23150000  0.80670000  0.46820000  1
  C  C324  1  0.23090000  0.72810000  0.73300000  1
  C  C325  1  0.22960000  0.92590000  0.46970000  1
  C  C326  1  0.21340000  0.70050000  0.62080000  1
  C  C327  1  0.20830000  0.76870000  0.28330000  1
  C  C328  1  0.20810000  0.21150000  0.04480000  1
  C  C329  1  0.20750000  0.09630000  0.01470000  1
  C  C330  1  0.19270000  0.57320000  0.94930000  1
  C  C331  1  0.19170000  0.86580000  0.47910000  1
  C  C332  1  0.19090000  0.69230000  0.94790000  1
  C  C333  1  0.18950000  0.98340000  0.48380000  1
  C  C334  1  0.15300000  0.63220000  0.93840000  1
  C  C335  1  0.15290000  0.19880000  0.09300000  1
  C  C336  1  0.15220000  0.08360000  0.06280000  1
  C  C337  1  0.14930000  0.75370000  0.93790000  1
  C  C338  1  0.14360000  0.80040000  0.98750000  1
  C  C339  1  0.12490000  0.13490000  0.10200000  1
  C  C340  1  0.12440000  0.97140000  0.02050000  1
  C  C341  1  0.12340000  0.01700000  0.07130000  1
  C  C342  1  0.11700000  0.76690000  0.87710000  1
  C  C343  1  0.10550000  0.86010000  0.97630000  1
  C  C344  1  0.09530000  0.90800000  0.03010000  1
  C  C345  1  0.09320000  0.99910000  0.13170000  1
  C  C346  1  0.08760000  0.92870000  0.25870000  1
  C  C347  1  0.08130000  0.72510000  0.31210000  1
  C  C348  1  0.07880000  0.82660000  0.86590000  1
  C  C349  1  0.07420000  0.32400000  0.86940000  1
  C  C350  1  0.07310000  0.87330000  0.91550000  1
  C  C351  1  0.06520000  0.11200000  0.71800000  1
  C  C352  1  0.06500000  0.89010000  0.09050000  1
  C  C353  1  0.06400000  0.93570000  0.14130000  1
  C  C354  1  0.06230000  0.91790000  0.32220000  1
  C  C355  1  0.06040000  0.90610000  0.77740000  1
  C  C356  1  0.05150000  0.84200000  0.80070000  1
  C  C357  1  0.04200000  0.36160000  0.81400000  1
  C  C358  1  0.03990000  0.10130000  0.78150000  1
  C  C359  1  0.03980000  0.18590000  0.93340000  1
  C  C360  1  0.03830000  0.10960000  0.60200000  1
  C  C361  1  0.03650000  0.91910000  0.20690000  1
  C  C362  1  0.03570000  0.25480000  0.95820000  1
  C  C363  1  0.03370000  0.10660000  0.38370000  1
  C  C364  1  0.03230000  0.92290000  0.71600000  1
  C  C365  1  0.02710000  0.67560000  0.28610000  1
  C  C366  1  0.01440000  0.79460000  0.76260000  1
  C  C367  1  0.01410000  0.10240000  0.66610000  1
  C  C368  1  0.01370000  0.18870000  0.29880000  1
  C  C369  1  0.00480000  0.12450000  0.32210000  1
  O  O370  1  0.99850000  0.09170000  0.54760000  1
  O  O371  1  0.99020000  0.69790000  0.08720000  1
  O  O372  1  0.98720000  0.31650000  0.78120000  1
  O  O373  1  0.98150000  0.95290000  0.58740000  1
  O  O374  1  0.96650000  0.17200000  0.89900000  1
  O  O375  1  0.91610000  0.85500000  0.58170000  1
  O  O376  1  0.89010000  0.87070000  0.41650000  1
  O  O377  1  0.88080000  0.01020000  0.48480000  1
  O  O378  1  0.85580000  0.27200000  0.73630000  1
  O  O379  1  0.81950000  0.21360000  0.95400000  1
  O  O380  1  0.79140000  0.79090000  0.50800000  1
  O  O381  1  0.79090000  0.66930000  0.93260000  1
  O  O382  1  0.78460000  0.95480000  0.53070000  1
  O  O383  1  0.76960000  0.20480000  0.82710000  1
  O  O384  1  0.73040000  0.29520000  0.32710000  1
  O  O385  1  0.71540000  0.54520000  0.03070000  1
  O  O386  1  0.70910000  0.83070000  0.43260000  1
  O  O387  1  0.70860000  0.70910000  0.00800000  1
  O  O388  1  0.68050000  0.28640000  0.45400000  1
  O  O389  1  0.64420000  0.22800000  0.23630000  1
  O  O390  1  0.61920000  0.48980000  0.98480000  1
  O  O391  1  0.60990000  0.62930000  0.91650000  1
  O  O392  1  0.58390000  0.64500000  0.08170000  1
  O  O393  1  0.53350000  0.32800000  0.39900000  1
  O  O394  1  0.51850000  0.54710000  0.08740000  1
  O  O395  1  0.51280000  0.18350000  0.28120000  1
  O  O396  1  0.50980000  0.80210000  0.58720000  1
  O  O397  1  0.50150000  0.40830000  0.04760000  1
  O  O398  1  0.49850000  0.59170000  0.95240000  1
  O  O399  1  0.49020000  0.19790000  0.41280000  1
  O  O400  1  0.48720000  0.81650000  0.71880000  1
  O  O401  1  0.48150000  0.45290000  0.91260000  1
  O  O402  1  0.46650000  0.67200000  0.60100000  1
  O  O403  1  0.41610000  0.35500000  0.91830000  1
  O  O404  1  0.39010000  0.37070000  0.08350000  1
  O  O405  1  0.38080000  0.51020000  0.01520000  1
  O  O406  1  0.35580000  0.77200000  0.76370000  1
  O  O407  1  0.31950000  0.71360000  0.54600000  1
  O  O408  1  0.29140000  0.29090000  0.99200000  1
  O  O409  1  0.29090000  0.16930000  0.56740000  1
  O  O410  1  0.28460000  0.45480000  0.96930000  1
  O  O411  1  0.26960000  0.70480000  0.67290000  1
  O  O412  1  0.23040000  0.79520000  0.17290000  1
  O  O413  1  0.21540000  0.04520000  0.46930000  1
  O  O414  1  0.20910000  0.33070000  0.06740000  1
  O  O415  1  0.20860000  0.20910000  0.49200000  1
  O  O416  1  0.18050000  0.78640000  0.04600000  1
  O  O417  1  0.14420000  0.72800000  0.26370000  1
  O  O418  1  0.11920000  0.98980000  0.51520000  1
  O  O419  1  0.10990000  0.12930000  0.58350000  1
  O  O420  1  0.08390000  0.14500000  0.41830000  1
  O  O421  1  0.03350000  0.82800000  0.10100000  1
  O  O422  1  0.01850000  0.04710000  0.41260000  1
  O  O423  1  0.01280000  0.68350000  0.21880000  1
  O  O424  1  0.00980000  0.30210000  0.91280000  1
  O  O425  1  0.00150000  0.90830000  0.45240000  1
