# generated using pymatgen
data_MgH8(C3O2)2
_symmetry_space_group_name_H-M   'P 1'
_cell_length_a   13.49500000
_cell_length_b   19.01640000
_cell_length_c   25.96640000
_cell_angle_alpha   81.03770000
_cell_angle_beta   74.93850000
_cell_angle_gamma   69.21720000
_symmetry_Int_Tables_number   1
_chemical_formula_structural   MgH8(C3O2)2
_chemical_formula_sum   'Mg16 H128 C96 O64'
_cell_volume   6001.11578802
_cell_formula_units_Z   16
loop_
 _symmetry_equiv_pos_site_id
 _symmetry_equiv_pos_as_xyz
  1  'x, y, z'
loop_
 _atom_site_type_symbol
 _atom_site_label
 _atom_site_symmetry_multiplicity
 _atom_site_fract_x
 _atom_site_fract_y
 _atom_site_fract_z
 _atom_site_occupancy
  Mg  Mg0  1  0.01517000  0.91405000  0.75757000  1
  Mg  Mg1  1  0.02628000  0.82118000  0.86876000  1
  Mg  Mg2  1  0.10284000  0.22489000  0.37409000  1
  Mg  Mg3  1  0.18374000  0.08084000  0.30988000  1
  Mg  Mg4  1  0.28378000  0.32118000  0.36876000  1
  Mg  Mg5  1  0.29818000  0.72489000  0.87409000  1
  Mg  Mg6  1  0.31321000  0.41405000  0.25757000  1
  Mg  Mg7  1  0.42554000  0.58084000  0.80988000  1
  Mg  Mg8  1  0.57446000  0.41916000  0.19012000  1
  Mg  Mg9  1  0.68679000  0.58595000  0.74243000  1
  Mg  Mg10  1  0.70182000  0.27511000  0.12591000  1
  Mg  Mg11  1  0.71622000  0.67882000  0.63124000  1
  Mg  Mg12  1  0.81626000  0.91916000  0.69012000  1
  Mg  Mg13  1  0.89716000  0.77511000  0.62591000  1
  Mg  Mg14  1  0.97372000  0.17882000  0.13124000  1
  Mg  Mg15  1  0.98483000  0.08595000  0.24243000  1
  H  H16  1  0.00080000  0.62520000  0.81300000  1
  H  H17  1  0.00530000  0.91010000  0.47750000  1
  H  H18  1  0.00780000  0.93560000  0.07240000  1
  H  H19  1  0.01510000  0.89870000  0.36990000  1
  H  H20  1  0.01580000  0.56440000  0.42760000  1
  H  H21  1  0.02170000  0.68060000  0.76140000  1
  H  H22  1  0.02540000  0.42290000  0.46350000  1
  H  H23  1  0.03760000  0.67540000  0.45020000  1
  H  H24  1  0.04100000  0.85850000  0.99550000  1
  H  H25  1  0.04250000  0.96890000  0.57410000  1
  H  H26  1  0.05470000  0.47300000  0.27260000  1
  H  H27  1  0.08080000  0.98590000  0.04090000  1
  H  H28  1  0.08820000  0.92290000  0.96350000  1
  H  H29  1  0.09090000  0.58190000  0.70550000  1
  H  H30  1  0.09130000  0.52080000  0.75540000  1
  H  H31  1  0.09590000  0.10420000  0.53500000  1
  H  H32  1  0.09820000  0.93580000  0.37900000  1
  H  H33  1  0.10500000  0.35850000  0.49550000  1
  H  H34  1  0.10610000  0.42150000  0.22290000  1
  H  H35  1  0.10760000  0.51410000  0.45910000  1
  H  H36  1  0.11000000  0.89290000  0.13750000  1
  H  H37  1  0.11650000  0.98020000  0.47920000  1
  H  H38  1  0.11990000  0.62200000  0.48600000  1
  H  H39  1  0.12740000  0.78310000  0.58990000  1
  H  H40  1  0.13260000  0.99190000  0.59070000  1
  H  H41  1  0.14040000  0.60710000  0.36250000  1
  H  H42  1  0.14410000  0.71340000  0.63360000  1
  H  H43  1  0.15030000  0.25830000  0.15150000  1
  H  H44  1  0.16320000  0.82460000  0.04980000  1
  H  H45  1  0.19480000  0.56230000  0.80030000  1
  H  H46  1  0.19970000  0.97300000  0.77260000  1
  H  H47  1  0.20060000  0.92800000  0.10340000  1
  H  H48  1  0.21330000  0.62100000  0.75060000  1
  H  H49  1  0.21610000  0.99880000  0.48940000  1
  H  H50  1  0.22330000  0.18580000  0.11900000  1
  H  H51  1  0.22790000  0.87800000  0.01400000  1
  H  H52  1  0.23200000  0.57200000  0.39660000  1
  H  H53  1  0.24950000  0.92150000  0.72290000  1
  H  H54  1  0.26380000  0.81450000  0.61890000  1
  H  H55  1  0.26490000  0.60420000  0.03500000  1
  H  H56  1  0.27690000  0.73870000  0.69770000  1
  H  H57  1  0.28370000  0.60130000  0.13010000  1
  H  H58  1  0.28480000  0.49190000  0.09070000  1
  H  H59  1  0.28670000  0.23870000  0.19770000  1
  H  H60  1  0.29570000  0.49880000  0.98940000  1
  H  H61  1  0.30280000  0.31450000  0.11890000  1
  H  H62  1  0.30700000  0.74220000  0.58500000  1
  H  H63  1  0.30910000  0.66480000  0.66666667  1
  H  H64  1  0.35950000  0.16480000  0.16660000  1
  H  H65  1  0.36580000  0.24220000  0.08500000  1
  H  H66  1  0.36750000  0.97920000  0.74460000  1
  H  H67  1  0.37830000  0.91810000  0.79450000  1
  H  H68  1  0.39290000  0.58990000  0.02250000  1
  H  H69  1  0.41300000  0.56420000  0.12100000  1
  H  H70  1  0.41450000  0.46890000  0.07410000  1
  H  H71  1  0.41510000  0.12100000  0.25060000  1
  H  H72  1  0.42410000  0.48020000  0.97920000  1
  H  H73  1  0.43900000  0.87480000  0.68700000  1
  H  H74  1  0.43990000  0.75830000  0.65150000  1
  H  H75  1  0.44260000  0.06230000  0.30030000  1
  H  H76  1  0.46370000  0.81940000  0.73860000  1
  H  H77  1  0.47190000  0.68580000  0.61900000  1
  H  H78  1  0.49110000  0.78660000  0.86640000  1
  H  H79  1  0.49960000  0.28310000  0.08990000  1
  H  H80  1  0.50040000  0.71690000  0.91010000  1
  H  H81  1  0.50890000  0.21340000  0.13360000  1
  H  H82  1  0.52810000  0.31420000  0.38100000  1
  H  H83  1  0.53630000  0.18060000  0.26140000  1
  H  H84  1  0.55740000  0.93770000  0.69970000  1
  H  H85  1  0.56010000  0.24170000  0.34850000  1
  H  H86  1  0.56100000  0.12520000  0.31300000  1
  H  H87  1  0.57590000  0.51980000  0.02080000  1
  H  H88  1  0.58490000  0.87900000  0.74940000  1
  H  H89  1  0.58550000  0.53110000  0.92590000  1
  H  H90  1  0.58700000  0.43580000  0.87900000  1
  H  H91  1  0.60710000  0.41010000  0.97750000  1
  H  H92  1  0.62170000  0.08190000  0.20550000  1
  H  H93  1  0.63250000  0.02080000  0.25540000  1
  H  H94  1  0.63420000  0.75780000  0.91500000  1
  H  H95  1  0.64050000  0.83520000  0.83340000  1
  H  H96  1  0.69090000  0.33520000  0.33340000  1
  H  H97  1  0.69300000  0.25780000  0.41500000  1
  H  H98  1  0.69720000  0.68550000  0.88110000  1
  H  H99  1  0.70430000  0.50120000  0.01060000  1
  H  H100  1  0.71330000  0.76130000  0.80230000  1
  H  H101  1  0.71520000  0.50810000  0.90930000  1
  H  H102  1  0.71630000  0.39870000  0.86990000  1
  H  H103  1  0.72310000  0.26130000  0.30230000  1
  H  H104  1  0.73510000  0.39580000  0.96500000  1
  H  H105  1  0.73620000  0.18550000  0.38110000  1
  H  H106  1  0.75050000  0.07850000  0.27710000  1
  H  H107  1  0.76800000  0.42800000  0.60340000  1
  H  H108  1  0.77210000  0.12200000  0.98600000  1
  H  H109  1  0.77670000  0.81420000  0.88100000  1
  H  H110  1  0.78390000  0.00120000  0.51060000  1
  H  H111  1  0.78670000  0.37900000  0.24940000  1
  H  H112  1  0.79940000  0.07200000  0.89660000  1
  H  H113  1  0.80030000  0.02700000  0.22740000  1
  H  H114  1  0.80520000  0.43770000  0.19970000  1
  H  H115  1  0.83680000  0.17540000  0.95020000  1
  H  H116  1  0.84970000  0.74170000  0.84850000  1
  H  H117  1  0.85590000  0.28660000  0.36640000  1
  H  H118  1  0.85960000  0.39290000  0.63750000  1
  H  H119  1  0.86740000  0.00810000  0.40930000  1
  H  H120  1  0.87260000  0.21690000  0.41010000  1
  H  H121  1  0.88010000  0.37800000  0.51400000  1
  H  H122  1  0.88350000  0.01980000  0.52080000  1
  H  H123  1  0.89000000  0.10710000  0.86250000  1
  H  H124  1  0.89240000  0.48590000  0.54090000  1
  H  H125  1  0.89390000  0.57850000  0.77710000  1
  H  H126  1  0.89500000  0.64150000  0.50450000  1
  H  H127  1  0.90180000  0.06420000  0.62100000  1
  H  H128  1  0.90410000  0.89580000  0.46500000  1
  H  H129  1  0.90870000  0.47920000  0.24460000  1
  H  H130  1  0.90910000  0.41810000  0.29450000  1
  H  H131  1  0.91180000  0.07710000  0.03650000  1
  H  H132  1  0.91920000  0.01410000  0.95910000  1
  H  H133  1  0.94530000  0.52700000  0.72740000  1
  H  H134  1  0.95750000  0.03110000  0.42590000  1
  H  H135  1  0.95900000  0.14150000  0.00450000  1
  H  H136  1  0.96240000  0.32460000  0.54980000  1
  H  H137  1  0.97460000  0.57710000  0.53650000  1
  H  H138  1  0.97830000  0.31940000  0.23860000  1
  H  H139  1  0.98420000  0.43560000  0.57240000  1
  H  H140  1  0.98490000  0.10130000  0.63010000  1
  H  H141  1  0.99220000  0.06440000  0.92760000  1
  H  H142  1  0.99470000  0.08990000  0.52250000  1
  H  H143  1  0.99920000  0.37480000  0.18700000  1
  C  C144  1  0.01682000  0.99346000  0.32090000  1
  C  C145  1  0.02490000  0.94710000  0.37230000  1
  C  C146  1  0.03849000  0.37172000  0.48150000  1
  C  C147  1  0.05006000  0.62908000  0.77780000  1
  C  C148  1  0.05120000  0.57220000  0.74220000  1
  C  C149  1  0.05548000  0.62714000  0.47230000  1
  C  C150  1  0.05835000  0.31650000  0.44060000  1
  C  C151  1  0.06050000  0.42510000  0.25970000  1
  C  C152  1  0.06073000  0.81414000  0.66600000  1
  C  C153  1  0.06090000  0.01200000  0.58100000  1
  C  C154  1  0.06344000  0.00772000  0.14220000  1
  C  C155  1  0.06820000  0.06470000  0.52970000  1
  C  C156  1  0.08262000  0.56236000  0.43780000  1
  C  C157  1  0.08278000  0.93764000  0.06220000  1
  C  C158  1  0.10829000  0.87172000  0.98150000  1
  C  C159  1  0.11830000  0.35900000  0.29580000  1
  C  C160  1  0.12156000  0.93598000  0.11310000  1
  C  C161  1  0.14194000  0.02172000  0.48260000  1
  C  C162  1  0.14650000  0.76550000  0.62510000  1
  C  C163  1  0.14750000  0.07090000  0.42910000  1
  C  C164  1  0.15234000  0.15882000  0.19590000  1
  C  C165  1  0.15492000  0.87286000  0.02770000  1
  C  C166  1  0.16560000  0.61510000  0.78590000  1
  C  C167  1  0.17064000  0.56402000  0.38690000  1
  C  C168  1  0.17080000  0.66710000  0.82290000  1
  C  C169  1  0.18455000  0.81650000  0.94060000  1
  C  C170  1  0.20460000  0.20740000  0.15400000  1
  C  C171  1  0.21336000  0.49228000  0.35780000  1
  C  C172  1  0.22690000  0.85900000  0.79580000  1
  C  C173  1  0.25470000  0.92510000  0.75970000  1
  C  C174  1  0.26310000  0.76260000  0.61960000  1
  C  C175  1  0.30517000  0.21546000  0.16340000  1
  C  C176  1  0.31597000  0.71546000  0.66340000  1
  C  C177  1  0.33118000  0.50654000  0.17910000  1
  C  C178  1  0.33740000  0.56470000  0.02970000  1
  C  C179  1  0.33920000  0.16710000  0.32290000  1
  C  C180  1  0.34430000  0.55290000  0.12770000  1
  C  C181  1  0.34610000  0.51200000  0.08100000  1
  C  C182  1  0.35250000  0.57090000  0.92910000  1
  C  C183  1  0.35374000  0.52172000  0.98260000  1
  C  C184  1  0.35470000  0.26260000  0.11960000  1
  C  C185  1  0.36560000  0.92780000  0.75780000  1
  C  C186  1  0.43340000  0.11510000  0.28590000  1
  C  C187  1  0.43400000  0.70740000  0.65400000  1
  C  C188  1  0.45694000  0.87092000  0.72220000  1
  C  C189  1  0.45913000  0.31414000  0.16600000  1
  C  C190  1  0.46290000  0.26550000  0.12510000  1
  C  C191  1  0.49294000  0.65882000  0.69590000  1
  C  C192  1  0.50706000  0.34118000  0.30410000  1
  C  C193  1  0.53710000  0.73450000  0.87490000  1
  C  C194  1  0.54087000  0.68586000  0.83400000  1
  C  C195  1  0.54306000  0.12908000  0.27780000  1
  C  C196  1  0.56600000  0.29260000  0.34600000  1
  C  C197  1  0.56660000  0.88490000  0.71410000  1
  C  C198  1  0.63440000  0.07220000  0.24220000  1
  C  C199  1  0.64530000  0.73740000  0.88040000  1
  C  C200  1  0.64626000  0.47828000  0.01740000  1
  C  C201  1  0.64750000  0.42910000  0.07090000  1
  C  C202  1  0.65390000  0.48800000  0.91900000  1
  C  C203  1  0.65570000  0.44710000  0.87230000  1
  C  C204  1  0.66080000  0.83290000  0.67710000  1
  C  C205  1  0.66260000  0.43530000  0.97030000  1
  C  C206  1  0.66882000  0.49346000  0.82090000  1
  C  C207  1  0.68403000  0.28454000  0.33660000  1
  C  C208  1  0.69483000  0.78454000  0.83660000  1
  C  C209  1  0.73690000  0.23740000  0.38040000  1
  C  C210  1  0.74530000  0.07490000  0.24030000  1
  C  C211  1  0.77310000  0.14100000  0.20420000  1
  C  C212  1  0.78664000  0.50772000  0.64220000  1
  C  C213  1  0.79540000  0.79260000  0.84600000  1
  C  C214  1  0.81545000  0.18350000  0.05940000  1
  C  C215  1  0.82920000  0.33290000  0.17710000  1
  C  C216  1  0.82936000  0.43598000  0.61310000  1
  C  C217  1  0.83440000  0.38490000  0.21410000  1
  C  C218  1  0.84508000  0.12714000  0.97230000  1
  C  C219  1  0.84766000  0.84118000  0.80410000  1
  C  C220  1  0.85250000  0.92910000  0.57090000  1
  C  C221  1  0.85350000  0.23450000  0.37490000  1
  C  C222  1  0.85806000  0.97828000  0.51740000  1
  C  C223  1  0.87844000  0.06402000  0.88690000  1
  C  C224  1  0.88170000  0.64100000  0.70420000  1
  C  C225  1  0.89171000  0.12828000  0.01850000  1
  C  C226  1  0.91722000  0.06236000  0.93780000  1
  C  C227  1  0.91738000  0.43764000  0.56220000  1
  C  C228  1  0.93180000  0.93530000  0.47030000  1
  C  C229  1  0.93656000  0.99228000  0.85780000  1
  C  C230  1  0.93910000  0.98800000  0.41900000  1
  C  C231  1  0.93927000  0.18586000  0.33400000  1
  C  C232  1  0.93950000  0.57490000  0.74030000  1
  C  C233  1  0.94165000  0.68350000  0.55940000  1
  C  C234  1  0.94452000  0.37286000  0.52770000  1
  C  C235  1  0.94880000  0.42780000  0.25780000  1
  C  C236  1  0.94994000  0.37092000  0.22220000  1
  C  C237  1  0.96151000  0.62828000  0.51850000  1
  C  C238  1  0.97510000  0.05290000  0.62770000  1
  C  C239  1  0.98318000  0.00654000  0.67910000  1
  O  O240  1  0.01455000  0.70411000  0.56479000  1
  O  O241  1  0.03447000  0.06870000  0.11396000  1
  O  O242  1  0.03860000  0.16953000  0.33647000  1
  O  O243  1  0.05291000  0.00079000  0.19199000  1
  O  O244  1  0.06527000  0.99357000  0.69789000  1
  O  O245  1  0.06686000  0.14977000  0.18911000  1
  O  O246  1  0.07042000  0.31446000  0.31910000  1
  O  O247  1  0.08473000  0.71274000  0.84640000  1
  O  O248  1  0.08903000  0.83771000  0.70023000  1
  O  O249  1  0.08919000  0.02391000  0.29631000  1
  O  O250  1  0.11624000  0.14058000  0.43234000  1
  O  O251  1  0.13323000  0.85570000  0.80024000  1
  O  O252  1  0.14220000  0.78975000  0.91265000  1
  O  O253  1  0.15540000  0.28975000  0.41265000  1
  O  O254  1  0.18168000  0.03660000  0.38724000  1
  O  O255  1  0.19382000  0.12988000  0.23528000  1
  O  O256  1  0.21083000  0.35570000  0.30024000  1
  O  O257  1  0.21713000  0.43130000  0.38604000  1
  O  O258  1  0.24327000  0.49357000  0.19789000  1
  O  O259  1  0.24569000  0.49921000  0.30801000  1
  O  O260  1  0.24709000  0.16059000  0.32823000  1
  O  O261  1  0.26409000  0.66059000  0.82823000  1
  O  O262  1  0.28345000  0.79589000  0.93521000  1
  O  O263  1  0.29602000  0.81446000  0.81910000  1
  O  O264  1  0.31084000  0.64058000  0.93234000  1
  O  O265  1  0.35613000  0.21274000  0.34640000  1
  O  O266  1  0.37303000  0.33771000  0.20023000  1
  O  O267  1  0.39448000  0.53660000  0.88724000  1
  O  O268  1  0.40574000  0.35023000  0.31089000  1
  O  O269  1  0.40941000  0.47609000  0.20369000  1
  O  O270  1  0.44102000  0.62988000  0.73528000  1
  O  O271  1  0.45540000  0.66953000  0.83647000  1
  O  O272  1  0.54460000  0.33047000  0.16353000  1
  O  O273  1  0.55898000  0.37012000  0.26472000  1
  O  O274  1  0.59059000  0.52391000  0.79631000  1
  O  O275  1  0.59426000  0.64977000  0.68911000  1
  O  O276  1  0.60552000  0.46340000  0.11276000  1
  O  O277  1  0.62697000  0.66229000  0.79977000  1
  O  O278  1  0.64387000  0.78726000  0.65360000  1
  O  O279  1  0.68916000  0.35942000  0.06766000  1
  O  O280  1  0.70398000  0.18554000  0.18090000  1
  O  O281  1  0.71655000  0.20411000  0.06479000  1
  O  O282  1  0.73591000  0.33941000  0.17177000  1
  O  O283  1  0.75291000  0.83941000  0.67177000  1
  O  O284  1  0.75431000  0.50079000  0.69199000  1
  O  O285  1  0.75673000  0.50643000  0.80211000  1
  O  O286  1  0.78287000  0.56870000  0.61396000  1
  O  O287  1  0.78917000  0.64430000  0.69976000  1
  O  O288  1  0.80618000  0.87012000  0.76472000  1
  O  O289  1  0.81832000  0.96340000  0.61276000  1
  O  O290  1  0.84460000  0.71025000  0.58735000  1
  O  O291  1  0.85780000  0.21025000  0.08735000  1
  O  O292  1  0.86677000  0.14430000  0.19976000  1
  O  O293  1  0.88376000  0.85942000  0.56766000  1
  O  O294  1  0.91081000  0.97609000  0.70369000  1
  O  O295  1  0.91097000  0.16229000  0.29977000  1
  O  O296  1  0.91527000  0.28726000  0.15360000  1
  O  O297  1  0.92958000  0.68554000  0.68090000  1
  O  O298  1  0.93314000  0.85023000  0.81089000  1
  O  O299  1  0.93473000  0.00643000  0.30211000  1
  O  O300  1  0.94709000  0.99921000  0.80801000  1
  O  O301  1  0.96140000  0.83047000  0.66353000  1
  O  O302  1  0.96553000  0.93130000  0.88604000  1
  O  O303  1  0.98545000  0.29589000  0.43521000  1
