# generated using pymatgen
data_TbH12C21(NO2)3
_symmetry_space_group_name_H-M   'P 1'
_cell_length_a   8.70930000
_cell_length_b   16.25380000
_cell_length_c   20.85950000
_cell_angle_alpha   94.89100000
_cell_angle_beta   90.00000000
_cell_angle_gamma   90.00000000
_symmetry_Int_Tables_number   1
_chemical_formula_structural   TbH12C21(NO2)3
_chemical_formula_sum   'Tb4 H48 C84 N12 O24'
_cell_volume   2942.10233080
_cell_formula_units_Z   4
loop_
 _symmetry_equiv_pos_site_id
 _symmetry_equiv_pos_as_xyz
  1  'x, y, z'
loop_
 _atom_site_type_symbol
 _atom_site_label
 _atom_site_symmetry_multiplicity
 _atom_site_fract_x
 _atom_site_fract_y
 _atom_site_fract_z
 _atom_site_occupancy
  Tb  Tb0  1  0.77877000  0.75761000  0.28758000  1
  Tb  Tb1  1  0.27877000  0.74239000  0.21242000  1
  Tb  Tb2  1  0.72123000  0.25761000  0.78758000  1
  Tb  Tb3  1  0.22123000  0.24239000  0.71242000  1
  H  H4  1  0.88740000  0.99990000  0.35450000  1
  H  H5  1  0.52000000  0.99010000  0.40890000  1
  H  H6  1  0.73320000  0.98580000  0.75170000  1
  H  H7  1  0.78700000  0.96470000  0.22750000  1
  H  H8  1  0.40570000  0.96220000  0.11850000  1
  H  H9  1  0.66230000  0.94540000  0.52470000  1
  H  H10  1  0.57900000  0.89360000  0.87960000  1
  H  H11  1  0.20820000  0.89250000  0.77040000  1
  H  H12  1  0.04920000  0.86460000  0.43680000  1
  H  H13  1  0.11550000  0.85930000  0.62260000  1
  H  H14  1  0.73600000  0.84180000  0.73080000  1
  H  H15  1  0.23030000  0.79940000  0.36910000  1
  H  H16  1  0.73030000  0.70060000  0.13090000  1
  H  H17  1  0.23600000  0.65820000  0.76920000  1
  H  H18  1  0.61550000  0.64070000  0.87740000  1
  H  H19  1  0.54920000  0.63540000  0.06320000  1
  H  H20  1  0.70820000  0.60750000  0.72960000  1
  H  H21  1  0.07900000  0.60640000  0.62040000  1
  H  H22  1  0.16230000  0.55460000  0.97530000  1
  H  H23  1  0.90570000  0.53780000  0.38150000  1
  H  H24  1  0.28700000  0.53530000  0.27250000  1
  H  H25  1  0.23320000  0.51420000  0.74830000  1
  H  H26  1  0.02000000  0.50990000  0.09110000  1
  H  H27  1  0.38740000  0.50010000  0.14550000  1
  H  H28  1  0.61260000  0.49990000  0.85450000  1
  H  H29  1  0.98000000  0.49010000  0.90890000  1
  H  H30  1  0.76680000  0.48580000  0.25170000  1
  H  H31  1  0.71300000  0.46470000  0.72750000  1
  H  H32  1  0.09430000  0.46220000  0.61850000  1
  H  H33  1  0.83770000  0.44540000  0.02470000  1
  H  H34  1  0.92100000  0.39360000  0.37960000  1
  H  H35  1  0.29180000  0.39250000  0.27040000  1
  H  H36  1  0.45080000  0.36460000  0.93680000  1
  H  H37  1  0.38450000  0.35930000  0.12260000  1
  H  H38  1  0.76400000  0.34180000  0.23080000  1
  H  H39  1  0.26970000  0.29940000  0.86910000  1
  H  H40  1  0.76970000  0.20060000  0.63090000  1
  H  H41  1  0.26400000  0.15820000  0.26920000  1
  H  H42  1  0.88450000  0.14070000  0.37740000  1
  H  H43  1  0.95080000  0.13540000  0.56320000  1
  H  H44  1  0.79180000  0.10750000  0.22960000  1
  H  H45  1  0.42100000  0.10640000  0.12040000  1
  H  H46  1  0.33770000  0.05460000  0.47530000  1
  H  H47  1  0.59430000  0.03780000  0.88150000  1
  H  H48  1  0.21300000  0.03530000  0.77250000  1
  H  H49  1  0.26680000  0.01420000  0.24830000  1
  H  H50  1  0.48000000  0.00990000  0.59110000  1
  H  H51  1  0.11260000  0.00010000  0.64550000  1
  C  C52  1  0.68450000  0.99610000  0.54680000  1
  C  C53  1  0.07370000  0.99310000  0.29660000  1
  C  C54  1  0.71120000  0.99260000  0.20650000  1
  C  C55  1  0.48390000  0.99080000  0.14120000  1
  C  C56  1  0.03790000  0.96810000  0.66330000  1
  C  C57  1  0.17230000  0.96790000  0.46090000  1
  C  C58  1  0.42450000  0.96560000  0.41330000  1
  C  C59  1  0.81150000  0.96030000  0.72710000  1
  C  C60  1  0.59290000  0.94910000  0.17380000  1
  C  C61  1  0.50690000  0.92230000  0.85730000  1
  C  C62  1  0.28600000  0.92180000  0.79270000  1
  C  C63  1  0.06880000  0.90140000  0.27980000  1
  C  C64  1  0.14240000  0.89040000  0.43020000  1
  C  C65  1  0.39110000  0.88940000  0.37950000  1
  C  C66  1  0.04030000  0.88400000  0.64940000  1
  C  C67  1  0.39400000  0.88000000  0.82370000  1
  C  C68  1  0.81220000  0.87400000  0.71420000  1
  C  C69  1  0.58510000  0.85670000  0.17760000  1
  C  C70  1  0.25100000  0.85130000  0.38960000  1
  C  C71  1  0.50750000  0.84830000  0.33430000  1
  C  C72  1  0.92980000  0.83740000  0.67590000  1
  C  C73  1  0.42980000  0.66260000  0.82410000  1
  C  C74  1  0.00750000  0.65170000  0.16570000  1
  C  C75  1  0.75100000  0.64870000  0.11040000  1
  C  C76  1  0.08510000  0.64330000  0.32240000  1
  C  C77  1  0.31220000  0.62600000  0.78580000  1
  C  C78  1  0.89400000  0.62000000  0.67630000  1
  C  C79  1  0.54030000  0.61600000  0.85060000  1
  C  C80  1  0.89110000  0.61060000  0.12050000  1
  C  C81  1  0.64240000  0.60960000  0.06980000  1
  C  C82  1  0.56880000  0.59860000  0.22020000  1
  C  C83  1  0.78600000  0.57820000  0.70730000  1
  C  C84  1  0.00690000  0.57770000  0.64270000  1
  C  C85  1  0.09290000  0.55090000  0.32620000  1
  C  C86  1  0.31150000  0.53970000  0.77290000  1
  C  C87  1  0.92450000  0.53440000  0.08670000  1
  C  C88  1  0.67230000  0.53210000  0.03910000  1
  C  C89  1  0.53790000  0.53190000  0.83670000  1
  C  C90  1  0.98390000  0.50920000  0.35880000  1
  C  C91  1  0.21120000  0.50740000  0.29350000  1
  C  C92  1  0.57370000  0.50690000  0.20340000  1
  C  C93  1  0.18450000  0.50390000  0.95320000  1
  C  C94  1  0.81550000  0.49610000  0.04680000  1
  C  C95  1  0.42630000  0.49310000  0.79660000  1
  C  C96  1  0.78880000  0.49260000  0.70650000  1
  C  C97  1  0.01610000  0.49080000  0.64120000  1
  C  C98  1  0.46210000  0.46810000  0.16330000  1
  C  C99  1  0.32770000  0.46790000  0.96090000  1
  C  C100  1  0.07550000  0.46560000  0.91330000  1
  C  C101  1  0.68850000  0.46030000  0.22710000  1
  C  C102  1  0.90710000  0.44910000  0.67380000  1
  C  C103  1  0.99310000  0.42230000  0.35730000  1
  C  C104  1  0.21400000  0.42180000  0.29270000  1
  C  C105  1  0.43120000  0.40140000  0.77980000  1
  C  C106  1  0.35760000  0.39040000  0.93020000  1
  C  C107  1  0.10890000  0.38940000  0.87950000  1
  C  C108  1  0.45970000  0.38400000  0.14940000  1
  C  C109  1  0.10600000  0.38000000  0.32370000  1
  C  C110  1  0.68780000  0.37400000  0.21420000  1
  C  C111  1  0.91490000  0.35670000  0.67760000  1
  C  C112  1  0.24900000  0.35130000  0.88960000  1
  C  C113  1  0.99250000  0.34830000  0.83430000  1
  C  C114  1  0.57020000  0.33740000  0.17590000  1
  C  C115  1  0.07020000  0.16260000  0.32410000  1
  C  C116  1  0.49250000  0.15170000  0.66570000  1
  C  C117  1  0.74900000  0.14870000  0.61040000  1
  C  C118  1  0.41490000  0.14330000  0.82240000  1
  C  C119  1  0.18780000  0.12600000  0.28580000  1
  C  C120  1  0.60600000  0.12000000  0.17630000  1
  C  C121  1  0.95970000  0.11600000  0.35060000  1
  C  C122  1  0.60890000  0.11060000  0.62050000  1
  C  C123  1  0.85760000  0.10960000  0.56980000  1
  C  C124  1  0.93120000  0.09860000  0.72020000  1
  C  C125  1  0.71400000  0.07820000  0.20730000  1
  C  C126  1  0.49310000  0.07770000  0.14270000  1
  C  C127  1  0.40710000  0.05090000  0.82620000  1
  C  C128  1  0.18850000  0.03970000  0.27290000  1
  C  C129  1  0.57550000  0.03440000  0.58670000  1
  C  C130  1  0.82770000  0.03210000  0.53910000  1
  C  C131  1  0.96210000  0.03190000  0.33670000  1
  C  C132  1  0.51610000  0.00920000  0.85880000  1
  C  C133  1  0.28880000  0.00740000  0.79350000  1
  C  C134  1  0.92630000  0.00690000  0.70340000  1
  C  C135  1  0.31550000  0.00390000  0.45320000  1
  N  N136  1  0.93410000  0.98520000  0.49910000  1
  N  N137  1  0.36050000  0.78560000  0.81210000  1
  N  N138  1  0.45780000  0.75480000  0.84020000  1
  N  N139  1  0.95780000  0.74520000  0.65980000  1
  N  N140  1  0.86050000  0.71440000  0.68790000  1
  N  N141  1  0.43410000  0.51480000  0.00090000  1
  N  N142  1  0.56590000  0.48520000  0.99910000  1
  N  N143  1  0.13950000  0.28560000  0.31210000  1
  N  N144  1  0.04220000  0.25480000  0.34020000  1
  N  N145  1  0.54220000  0.24520000  0.15980000  1
  N  N146  1  0.63950000  0.21440000  0.18790000  1
  N  N147  1  0.06590000  0.01480000  0.50090000  1
  O  O148  1  0.64270000  0.87410000  0.33780000  1
  O  O149  1  0.17990000  0.86930000  0.24840000  1
  O  O150  1  0.95610000  0.86320000  0.29890000  1
  O  O151  1  0.70030000  0.82160000  0.19840000  1
  O  O152  1  0.46160000  0.82080000  0.16050000  1
  O  O153  1  0.46700000  0.78800000  0.29533000  1
  O  O154  1  0.96700000  0.71200000  0.20467000  1
  O  O155  1  0.96160000  0.67920000  0.33950000  1
  O  O156  1  0.20030000  0.67840000  0.30160000  1
  O  O157  1  0.45610000  0.63680000  0.20110000  1
  O  O158  1  0.67990000  0.63070000  0.25160000  1
  O  O159  1  0.14270000  0.62590000  0.16220000  1
  O  O160  1  0.85730000  0.37410000  0.83780000  1
  O  O161  1  0.32010000  0.36930000  0.74840000  1
  O  O162  1  0.54390000  0.36320000  0.79890000  1
  O  O163  1  0.79970000  0.32160000  0.69840000  1
  O  O164  1  0.03840000  0.32080000  0.66050000  1
  O  O165  1  0.03300000  0.28800000  0.79533000  1
  O  O166  1  0.53300000  0.21200000  0.70467000  1
  O  O167  1  0.53840000  0.17920000  0.83950000  1
  O  O168  1  0.29970000  0.17840000  0.80160000  1
  O  O169  1  0.04390000  0.13680000  0.70110000  1
  O  O170  1  0.82010000  0.13070000  0.75160000  1
  O  O171  1  0.35730000  0.12590000  0.66220000  1
