# generated using pymatgen
data_SmH25C28(NO4)2
_symmetry_space_group_name_H-M   'P 1'
_cell_length_a   8.99800000
_cell_length_b   17.02519900
_cell_length_c   31.23121340
_cell_angle_alpha   84.87897605
_cell_angle_beta   81.71746290
_cell_angle_gamma   74.67728945
_symmetry_Int_Tables_number   1
_chemical_formula_structural   SmH25C28(NO4)2
_chemical_formula_sum   'Sm4 H100 C112 N8 O32'
_cell_volume   4559.62100103
_cell_formula_units_Z   4
loop_
 _symmetry_equiv_pos_site_id
 _symmetry_equiv_pos_as_xyz
  1  'x, y, z'
loop_
 _atom_site_type_symbol
 _atom_site_label
 _atom_site_symmetry_multiplicity
 _atom_site_fract_x
 _atom_site_fract_y
 _atom_site_fract_z
 _atom_site_occupancy
  C  C0  1  0.80930000  0.10320000  0.79600000  1
  C  C1  1  0.29150000  0.60320000  0.29600000  1
  C  C2  1  0.03320000  0.96960000  0.90400000  1
  C  C3  1  0.09320000  0.46960000  0.40400000  1
  C  C4  1  0.82760000  0.13360000  0.71540000  1
  C  C5  1  0.32340000  0.63360000  0.21540000  1
  C  C6  1  0.77590000  0.08930000  0.75110000  1
  C  C7  1  0.38370000  0.58930000  0.25110000  1
  C  C8  1  0.01770000  0.37290000  0.46290000  1
  C  C9  1  0.14650000  0.87290000  0.96290000  1
  C  C10  1  0.02320000  0.39930000  0.41950000  1
  C  C11  1  0.15800000  0.89930000  0.91950000  1
  C  C12  1  0.84530000  0.17000000  0.63560000  1
  C  C13  1  0.34910000  0.67000000  0.13560000  1
  C  C14  1  0.94550000  0.27430000  0.52330000  1
  C  C15  1  0.25690000  0.77430000  0.02330000  1
  C  C16  1  0.79470000  0.11910000  0.67550000  1
  C  C17  1  0.41070000  0.61910000  0.17550000  1
  C  C18  1  0.95610000  0.30650000  0.47590000  1
  C  C19  1  0.26150000  0.80650000  0.97590000  1
  C  C20  1  0.69790000  0.03150000  0.74710000  1
  C  C21  1  0.52350000  0.53150000  0.24710000  1
  C  C22  1  0.97090000  0.36050000  0.38990000  1
  C  C23  1  0.27870000  0.86050000  0.88990000  1
  C  C24  1  0.72300000  0.05940000  0.67020000  1
  C  C25  1  0.54740000  0.55940000  0.17020000  1
  C  C26  1  0.66600000  0.01670000  0.70570000  1
  C  C27  1  0.61160000  0.51670000  0.20570000  1
  C  C28  1  0.90370000  0.26660000  0.44620000  1
  C  C29  1  0.38350000  0.76660000  0.94620000  1
  C  C30  1  0.09230000  0.46250000  0.24090000  1
  C  C31  1  0.20430000  0.96250000  0.74090000  1
  C  C32  1  0.90680000  0.29440000  0.40280000  1
  C  C33  1  0.39600000  0.79440000  0.90280000  1
  C  C34  1  0.83250000  0.84310000  0.84190000  1
  C  C35  1  0.48250000  0.34310000  0.34190000  1
  C  C36  1  0.81950000  0.40250000  0.23350000  1
  C  C37  1  0.54450000  0.90250000  0.73350000  1
  C  C38  1  0.82160000  0.28630000  0.33150000  1
  C  C39  1  0.56060000  0.78630000  0.83150000  1
  C  C40  1  0.11120000  0.38000000  0.22100000  1
  C  C41  1  0.28780000  0.88000000  0.72100000  1
  C  C42  1  0.85130000  0.76420000  0.81980000  1
  C  C43  1  0.56470000  0.26420000  0.31980000  1
  C  C44  1  0.02530000  0.86830000  0.70910000  1
  C  C45  1  0.39730000  0.36830000  0.20910000  1
  C  C46  1  0.97900000  0.35160000  0.21680000  1
  C  C47  1  0.45260000  0.85160000  0.71680000  1
  C  C48  1  0.14520000  0.74770000  0.81110000  1
  C  C49  1  0.29600000  0.24770000  0.31110000  1
  C  C50  1  0.72430000  0.23750000  0.31410000  1
  C  C51  1  0.72410000  0.73750000  0.81410000  1
  C  C52  1  0.19980000  0.83580000  0.70520000  1
  C  C53  1  0.25920000  0.33580000  0.20520000  1
  C  C54  1  0.00490000  0.71970000  0.80490000  1
  C  C55  1  0.47050000  0.21970000  0.30490000  1
  C  C56  1  0.99510000  0.28030000  0.19510000  1
  C  C57  1  0.52950000  0.78030000  0.69510000  1
  C  C58  1  0.80020000  0.16420000  0.29480000  1
  C  C59  1  0.74080000  0.66420000  0.79480000  1
  C  C60  1  0.27570000  0.76250000  0.68590000  1
  C  C61  1  0.27590000  0.26250000  0.18590000  1
  C  C62  1  0.85480000  0.25230000  0.18890000  1
  C  C63  1  0.70400000  0.75230000  0.68890000  1
  C  C64  1  0.02100000  0.64840000  0.78320000  1
  C  C65  1  0.54740000  0.14840000  0.28320000  1
  C  C66  1  0.97470000  0.13170000  0.29090000  1
  C  C67  1  0.60270000  0.63170000  0.79090000  1
  C  C68  1  0.14870000  0.23580000  0.18020000  1
  C  C69  1  0.43530000  0.73580000  0.68020000  1
  C  C70  1  0.88880000  0.62000000  0.77900000  1
  C  C71  1  0.71220000  0.12000000  0.27900000  1
  C  C72  1  0.17840000  0.71370000  0.66850000  1
  C  C73  1  0.43940000  0.21370000  0.16850000  1
  C  C74  1  0.18050000  0.59750000  0.76650000  1
  C  C75  1  0.45550000  0.09750000  0.26650000  1
  C  C76  1  0.16750000  0.15690000  0.15810000  1
  C  C77  1  0.51750000  0.65690000  0.65810000  1
  C  C78  1  0.09320000  0.70560000  0.59720000  1
  C  C79  1  0.60400000  0.20560000  0.09720000  1
  C  C80  1  0.90770000  0.53750000  0.75910000  1
  C  C81  1  0.79570000  0.03750000  0.25910000  1
  C  C82  1  0.09630000  0.73340000  0.55380000  1
  C  C83  1  0.61650000  0.23340000  0.05380000  1
  C  C84  1  0.33400000  0.98330000  0.29430000  1
  C  C85  1  0.38840000  0.48330000  0.79430000  1
  C  C86  1  0.27700000  0.94060000  0.32980000  1
  C  C87  1  0.45260000  0.44060000  0.82980000  1
  C  C88  1  0.02910000  0.63950000  0.61010000  1
  C  C89  1  0.72130000  0.13950000  0.11010000  1
  C  C90  1  0.30210000  0.96850000  0.25290000  1
  C  C91  1  0.47650000  0.46850000  0.75290000  1
  C  C92  1  0.04390000  0.69350000  0.52410000  1
  C  C93  1  0.73850000  0.19350000  0.02410000  1
  C  C94  1  0.20530000  0.88090000  0.32450000  1
  C  C95  1  0.58930000  0.38090000  0.82450000  1
  C  C96  1  0.05450000  0.72570000  0.47670000  1
  C  C97  1  0.74310000  0.22570000  0.97670000  1
  C  C98  1  0.15470000  0.83000000  0.36440000  1
  C  C99  1  0.65090000  0.33000000  0.86440000  1
  C  C100  1  0.97680000  0.60070000  0.58050000  1
  C  C101  1  0.84200000  0.10070000  0.08050000  1
  C  C102  1  0.98230000  0.62710000  0.53710000  1
  C  C103  1  0.85350000  0.12710000  0.03710000  1
  C  C104  1  0.22410000  0.91070000  0.24890000  1
  C  C105  1  0.61630000  0.41070000  0.74890000  1
  C  C106  1  0.17240000  0.86640000  0.28460000  1
  C  C107  1  0.67660000  0.36640000  0.78460000  1
  C  C108  1  0.96680000  0.03040000  0.09600000  1
  C  C109  1  0.90680000  0.53040000  0.59600000  1
  C  C110  1  0.19070000  0.89680000  0.20400000  1
  C  C111  1  0.70850000  0.39680000  0.70400000  1
  H  H112  1  0.88240000  0.17180000  0.71820000  1
  H  H113  1  0.22760000  0.67180000  0.21820000  1
  H  H114  1  0.05400000  0.39870000  0.48270000  1
  H  H115  1  0.06460000  0.89870000  0.98270000  1
  H  H116  1  0.66580000  0.00200000  0.77160000  1
  H  H117  1  0.56060000  0.50200000  0.27160000  1
  H  H118  1  0.89010000  0.16710000  0.57990000  1
  H  H119  1  0.36290000  0.66710000  0.07990000  1
  H  H120  1  0.97830000  0.37870000  0.36090000  1
  H  H121  1  0.28210000  0.87870000  0.86090000  1
  H  H122  1  0.98420000  0.49070000  0.24530000  1
  H  H123  1  0.27980000  0.99070000  0.74530000  1
  H  H124  1  0.13310000  0.45300000  0.26820000  1
  H  H125  1  0.14570000  0.95300000  0.76820000  1
  H  H126  1  0.13540000  0.99500000  0.72160000  1
  H  H127  1  0.14800000  0.49500000  0.22160000  1
  H  H128  1  0.74890000  0.84880000  0.86520000  1
  H  H129  1  0.53710000  0.34880000  0.36520000  1
  H  H130  1  0.80990000  0.88850000  0.82130000  1
  H  H131  1  0.48030000  0.38850000  0.32130000  1
  H  H132  1  0.92710000  0.84160000  0.85320000  1
  H  H133  1  0.37810000  0.34160000  0.35320000  1
  H  H134  1  0.71260000  0.04770000  0.64250000  1
  H  H135  1  0.59720000  0.54770000  0.14250000  1
  H  H136  1  0.82750000  0.43150000  0.25810000  1
  H  H137  1  0.48290000  0.93150000  0.75810000  1
  H  H138  1  0.86630000  0.22110000  0.45550000  1
  H  H139  1  0.45710000  0.72110000  0.95550000  1
  H  H140  1  0.76870000  0.34410000  0.33030000  1
  H  H141  1  0.55690000  0.84410000  0.83030000  1
  H  H142  1  0.80420000  0.46040000  0.17480000  1
  H  H143  1  0.56060000  0.96040000  0.67480000  1
  H  H144  1  0.99980000  0.92430000  0.69830000  1
  H  H145  1  0.37760000  0.42430000  0.19830000  1
  H  H146  1  0.12510000  0.80560000  0.80520000  1
  H  H147  1  0.26410000  0.30560000  0.30520000  1
  H  H148  1  0.75190000  0.36680000  0.24340000  1
  H  H149  1  0.63790000  0.86680000  0.74340000  1
  H  H150  1  0.98240000  0.86470000  0.73890000  1
  H  H151  1  0.41400000  0.36470000  0.23890000  1
  H  H152  1  0.81390000  0.21510000  0.38510000  1
  H  H153  1  0.58590000  0.71510000  0.88510000  1
  H  H154  1  0.92150000  0.27910000  0.31370000  1
  H  H155  1  0.48570000  0.77910000  0.81370000  1
  H  H156  1  0.16730000  0.73470000  0.84050000  1
  H  H157  1  0.25750000  0.23470000  0.34050000  1
  H  H158  1  0.98310000  0.83660000  0.69240000  1
  H  H159  1  0.48790000  0.33660000  0.19240000  1
  H  H160  1  0.23280000  0.72070000  0.79170000  1
  H  H161  1  0.25480000  0.22070000  0.29170000  1
  H  H162  1  0.76720000  0.27930000  0.20830000  1
  H  H163  1  0.74520000  0.77930000  0.70830000  1
  H  H164  1  0.01690000  0.16340000  0.30760000  1
  H  H165  1  0.51210000  0.66340000  0.80760000  1
  H  H166  1  0.83270000  0.26530000  0.15950000  1
  H  H167  1  0.74250000  0.76530000  0.65950000  1
  H  H168  1  0.07850000  0.72090000  0.68630000  1
  H  H169  1  0.51430000  0.22090000  0.18630000  1
  H  H170  1  0.18610000  0.78490000  0.61490000  1
  H  H171  1  0.41410000  0.28490000  0.11490000  1
  H  H172  1  0.01760000  0.13530000  0.26110000  1
  H  H173  1  0.58600000  0.63530000  0.76110000  1
  H  H174  1  0.24810000  0.63320000  0.75660000  1
  H  H175  1  0.36210000  0.13320000  0.25660000  1
  H  H176  1  0.87490000  0.19440000  0.19480000  1
  H  H177  1  0.73590000  0.69440000  0.69480000  1
  H  H178  1  0.00020000  0.07570000  0.30170000  1
  H  H179  1  0.62240000  0.57570000  0.80170000  1
  H  H180  1  0.19580000  0.53960000  0.82520000  1
  H  H181  1  0.43940000  0.03960000  0.32520000  1
  H  H182  1  0.23130000  0.65590000  0.66970000  1
  H  H183  1  0.44310000  0.15590000  0.16970000  1
  H  H184  1  0.13370000  0.77890000  0.54450000  1
  H  H185  1  0.54290000  0.27890000  0.04450000  1
  H  H186  1  0.17250000  0.56850000  0.74190000  1
  H  H187  1  0.51710000  0.06850000  0.24190000  1
  H  H188  1  0.28740000  0.95230000  0.35750000  1
  H  H189  1  0.40280000  0.45230000  0.85750000  1
  H  H190  1  0.07290000  0.15840000  0.14680000  1
  H  H191  1  0.62190000  0.65840000  0.64680000  1
  H  H192  1  0.19010000  0.11150000  0.17870000  1
  H  H193  1  0.51970000  0.61150000  0.67870000  1
  H  H194  1  0.25110000  0.15120000  0.13480000  1
  H  H195  1  0.46290000  0.65120000  0.63480000  1
  H  H196  1  0.86460000  0.00500000  0.27840000  1
  H  H197  1  0.85200000  0.50500000  0.77840000  1
  H  H198  1  0.86690000  0.54700000  0.73180000  1
  H  H199  1  0.85430000  0.04700000  0.23180000  1
  H  H200  1  0.01580000  0.50930000  0.75470000  1
  H  H201  1  0.72020000  0.00930000  0.25470000  1
  H  H202  1  0.02170000  0.62130000  0.63910000  1
  H  H203  1  0.71790000  0.12130000  0.13910000  1
  H  H204  1  0.10990000  0.83290000  0.42010000  1
  H  H205  1  0.63710000  0.33290000  0.92010000  1
  H  H206  1  0.33420000  0.99800000  0.22840000  1
  H  H207  1  0.43940000  0.49800000  0.72840000  1
  H  H208  1  0.94600000  0.60130000  0.51730000  1
  H  H209  1  0.93540000  0.10130000  0.01730000  1
  H  H210  1  0.11760000  0.82820000  0.28180000  1
  H  H211  1  0.77240000  0.32820000  0.78180000  1
  N  N212  1  0.75140000  0.46120000  0.20000000  1
  N  N213  1  0.58740000  0.96120000  0.70000000  1
  N  N214  1  0.84320000  0.25810000  0.37530000  1
  N  N215  1  0.52340000  0.75810000  0.87530000  1
  N  N216  1  0.15680000  0.74190000  0.62470000  1
  N  N217  1  0.47660000  0.24190000  0.12470000  1
  N  N218  1  0.24860000  0.53880000  0.80000000  1
  N  N219  1  0.41260000  0.03880000  0.30000000  1
  O  O220  1  0.93120000  0.00879000  0.93161000  1
  O  O221  1  0.12840000  0.50879000  0.43161000  1
  O  O222  1  0.91400000  0.13746000  0.80034000  1
  O  O223  1  0.14820000  0.63746000  0.30034000  1
  O  O224  1  0.72920000  0.07854000  0.82786000  1
  O  O225  1  0.36440000  0.57854000  0.32786000  1
  O  O226  1  0.85650000  0.23820000  0.63940000  1
  O  O227  1  0.26590000  0.73820000  0.13940000  1
  O  O228  1  0.98200000  0.31206000  0.55094000  1
  O  O229  1  0.15500000  0.81206000  0.05094000  1
  O  O230  1  0.04150000  0.99344000  0.86556000  1
  O  O231  1  0.09950000  0.49344000  0.36556000  1
  O  O232  1  0.90200000  0.20770000  0.53050000  1
  O  O233  1  0.35980000  0.70770000  0.03050000  1
  O  O234  1  0.86120000  0.13720000  0.59960000  1
  O  O235  1  0.40200000  0.63720000  0.09960000  1
  O  O236  1  0.13880000  0.86280000  0.40040000  1
  O  O237  1  0.59800000  0.36280000  0.90040000  1
  O  O238  1  0.09800000  0.79230000  0.46950000  1
  O  O239  1  0.64020000  0.29230000  0.96950000  1
  O  O240  1  0.95850000  0.00656000  0.13444000  1
  O  O241  1  0.90050000  0.50656000  0.63444000  1
  O  O242  1  0.01800000  0.68794000  0.44906000  1
  O  O243  1  0.84500000  0.18794000  0.94906000  1
  O  O244  1  0.14350000  0.76180000  0.36060000  1
  O  O245  1  0.73410000  0.26180000  0.86060000  1
  O  O246  1  0.27080000  0.92146000  0.17214000  1
  O  O247  1  0.63560000  0.42146000  0.67214000  1
  O  O248  1  0.08600000  0.86254000  0.19966000  1
  O  O249  1  0.85180000  0.36254000  0.69966000  1
  O  O250  1  0.06880000  0.99121000  0.06839000  1
  O  O251  1  0.87160000  0.49121000  0.56839000  1
  Sm  Sm252  1  0.86136000  0.37341000  0.61897000  1
  Sm  Sm253  1  0.14626000  0.87341000  0.11897000  1
  Sm  Sm254  1  0.13864000  0.62659000  0.38103000  1
  Sm  Sm255  1  0.85374000  0.12659000  0.88103000  1
