# generated using pymatgen
data_Co3Mo4(PO7)4
_symmetry_space_group_name_H-M   'P 1'
_cell_length_a   10.74000000
_cell_length_b   13.23680286
_cell_length_c   13.23680286
_cell_angle_alpha   80.52704638
_cell_angle_beta   66.06580926
_cell_angle_gamma   66.06580926
_symmetry_Int_Tables_number   1
_chemical_formula_structural   Co3Mo4(PO7)4
_chemical_formula_sum   'Co6 Mo8 P8 O56'
_cell_volume   1572.07877700
_cell_formula_units_Z   2
loop_
 _symmetry_equiv_pos_site_id
 _symmetry_equiv_pos_as_xyz
  1  'x, y, z'
loop_
 _atom_site_type_symbol
 _atom_site_label
 _atom_site_symmetry_multiplicity
 _atom_site_fract_x
 _atom_site_fract_y
 _atom_site_fract_z
 _atom_site_occupancy
  Co  Co0  1  0.50000000  0.00000000  0.00000000  1
  Co  Co1  1  0.87500000  0.75000000  0.25000000  1
  Co  Co2  1  0.50000000  0.50000000  0.50000000  1
  Co  Co3  1  0.12500000  0.25000000  0.75000000  1
  Co  Co4  1  0.50000000  0.50000000  1.00000000  1
  Co  Co5  1  1.00000000  0.00000000  0.50000000  1
  Mo  Mo6  1  0.46836000  0.39854000  0.28002000  1
  Mo  Mo7  1  0.85308000  0.89854000  0.78002000  1
  Mo  Mo8  1  0.63310000  0.71998000  0.89854000  1
  Mo  Mo9  1  0.74838000  0.21998000  0.39854000  1
  Mo  Mo10  1  0.36690000  0.28002000  0.10146000  1
  Mo  Mo11  1  0.25162000  0.78002000  0.60146000  1
  Mo  Mo12  1  0.53164000  0.60146000  0.71998000  1
  Mo  Mo13  1  0.14692000  0.10146000  0.21998000  1
  O  O14  1  0.63860000  0.90400000  0.08180000  1
  O  O15  1  0.37560000  0.40400000  0.58180000  1
  O  O16  1  0.03350000  0.61290000  0.25130000  1
  O  O17  1  0.10230000  0.11290000  0.75130000  1
  O  O18  1  0.85360000  0.74870000  0.11290000  1
  O  O19  1  0.28480000  0.24870000  0.61290000  1
  O  O20  1  0.46390000  0.49690000  0.35670000  1
  O  O21  1  0.68250000  0.99690000  0.85670000  1
  O  O22  1  0.51860000  0.85620000  0.94300000  1
  O  O23  1  0.68220000  0.35620000  0.44300000  1
  O  O24  1  0.25600000  0.49780000  0.28620000  1
  O  O25  1  0.96000000  0.99780000  0.78620000  1
  O  O26  1  0.88960000  0.83790000  0.92870000  1
  O  O27  1  0.34380000  0.33790000  0.42870000  1
  O  O28  1  0.74620000  0.71380000  0.99780000  1
  O  O29  1  0.54220000  0.21380000  0.49780000  1
  O  O30  1  0.27960000  0.58180000  0.09600000  1
  O  O31  1  0.04260000  0.08180000  0.59600000  1
  O  O32  1  0.53920000  0.64330000  0.99690000  1
  O  O33  1  0.82060000  0.14330000  0.49690000  1
  O  O34  1  0.18170000  0.42870000  0.16210000  1
  O  O35  1  0.22750000  0.92870000  0.66210000  1
  O  O36  1  0.53840000  0.44300000  0.14380000  1
  O  O37  1  0.87480000  0.94300000  0.64380000  1
  O  O38  1  0.63020000  0.28540000  0.28500000  1
  O  O39  1  0.79940000  0.78540000  0.78500000  1
  O  O40  1  0.58440000  0.71500000  0.78540000  1
  O  O41  1  0.91520000  0.21500000  0.28540000  1
  O  O42  1  0.41560000  0.28500000  0.21460000  1
  O  O43  1  0.08480000  0.78500000  0.71460000  1
  O  O44  1  0.36980000  0.71460000  0.71500000  1
  O  O45  1  0.20060000  0.21460000  0.21500000  1
  O  O46  1  0.46160000  0.55700000  0.85620000  1
  O  O47  1  0.12520000  0.05700000  0.35620000  1
  O  O48  1  0.81830000  0.57130000  0.83790000  1
  O  O49  1  0.77250000  0.07130000  0.33790000  1
  O  O50  1  0.46080000  0.35670000  0.00310000  1
  O  O51  1  0.17940000  0.85670000  0.50310000  1
  O  O52  1  0.72040000  0.41820000  0.90400000  1
  O  O53  1  0.95740000  0.91820000  0.40400000  1
  O  O54  1  0.25380000  0.28620000  0.00220000  1
  O  O55  1  0.45780000  0.78620000  0.50220000  1
  O  O56  1  0.11040000  0.16210000  0.07130000  1
  O  O57  1  0.65620000  0.66210000  0.57130000  1
  O  O58  1  0.74400000  0.50220000  0.71380000  1
  O  O59  1  0.04000000  0.00220000  0.21380000  1
  O  O60  1  0.48140000  0.14380000  0.05700000  1
  O  O61  1  0.31780000  0.64380000  0.55700000  1
  O  O62  1  0.53610000  0.50310000  0.64330000  1
  O  O63  1  0.31750000  0.00310000  0.14330000  1
  O  O64  1  0.14640000  0.25130000  0.88710000  1
  O  O65  1  0.71520000  0.75130000  0.38710000  1
  O  O66  1  0.96650000  0.38710000  0.74870000  1
  O  O67  1  0.89770000  0.88710000  0.24870000  1
  O  O68  1  0.36140000  0.09600000  0.91820000  1
  O  O69  1  0.62440000  0.59600000  0.41820000  1
  P  P70  1  0.77911000  0.80358000  0.03194000  1
  P  P71  1  0.38537000  0.30358000  0.53194000  1
  P  P72  1  0.18895000  0.53194000  0.19642000  1
  P  P73  1  0.08269000  0.03194000  0.69642000  1
  P  P74  1  0.81105000  0.46806000  0.80358000  1
  P  P75  1  0.91731000  0.96806000  0.30358000  1
  P  P76  1  0.22089000  0.19642000  0.96806000  1
  P  P77  1  0.61463000  0.69642000  0.46806000  1
