# generated using pymatgen
data_ZrP6C48(NO3)6
_symmetry_space_group_name_H-M   'P 1'
_cell_length_a   5.12770000
_cell_length_b   35.07188260
_cell_length_c   35.07188260
_cell_angle_alpha   119.76457412
_cell_angle_beta   92.79342473
_cell_angle_gamma   92.79342473
_symmetry_Int_Tables_number   1
_chemical_formula_structural   ZrP6C48(NO3)6
_chemical_formula_sum   'Zr3 P18 C144 N18 O54'
_cell_volume   5449.27432504
_cell_formula_units_Z   3
loop_
 _symmetry_equiv_pos_site_id
 _symmetry_equiv_pos_as_xyz
  1  'x, y, z'
loop_
 _atom_site_type_symbol
 _atom_site_label
 _atom_site_symmetry_multiplicity
 _atom_site_fract_x
 _atom_site_fract_y
 _atom_site_fract_z
 _atom_site_occupancy
  C  C0  1  0.39140000  0.18200000  0.83020000  1
  C  C1  1  0.61600000  0.84930000  0.21470000  1
  C  C2  1  0.43750000  0.84040000  0.23710000  1
  C  C3  1  0.75150000  0.94370000  0.15280000  1
  C  C4  1  0.29740000  0.20560000  0.90260000  1
  C  C5  1  0.80170000  0.88340000  0.23670000  1
  C  C6  1  0.63530000  0.24040000  0.88250000  1
  C  C7  1  0.88380000  0.18860000  0.93880000  1
  C  C8  1  0.99220000  0.27460000  0.85700000  1
  C  C9  1  0.15520000  0.19990000  0.94070000  1
  C  C10  1  0.40970000  0.86860000  0.28150000  1
  C  C11  1  0.77520000  0.18110000  0.97450000  1
  C  C12  1  0.88080000  0.27400000  0.89240000  1
  C  C13  1  0.90770000  0.98470000  0.18440000  1
  C  C14  1  0.19750000  0.30710000  0.86440000  1
  C  C15  1  0.15870000  0.54590000  0.63020000  1
  C  C16  1  0.16540000  0.98390000  0.19630000  1
  C  C17  1  0.79910000  0.90880000  0.28450000  1
  C  C18  1  0.27530000  0.22150000  0.98240000  1
  C  C19  1  0.58790000  0.90270000  0.30500000  1
  C  C20  1  0.92300000  0.19970000  0.01530000  1
  C  C21  1  0.21370000  0.64520000  0.57490000  1
  C  C22  1  0.93710000  0.56750000  0.66080000  1
  C  C23  1  0.18150000  0.21240000  0.01610000  1
  C  C24  1  0.80070000  0.02550000  0.20660000  1
  C  C25  1  0.95540000  0.30730000  0.93290000  1
  C  C26  1  0.27630000  0.33920000  0.90670000  1
  C  C27  1  0.89040000  0.55730000  0.69290000  1
  C  C28  1  0.29290000  0.01760000  0.23910000  1
  C  C29  1  0.80780000  0.20910000  0.05630000  1
  C  C30  1  0.84130000  0.60580000  0.66510000  1
  C  C31  1  0.17620000  0.33490000  0.94070000  1
  C  C32  1  0.56850000  0.92970000  0.35480000  1
  C  C33  1  0.52850000  0.36980000  0.91570000  1
  C  C34  1  0.28290000  0.69500000  0.59770000  1
  C  C35  1  0.12820000  0.71850000  0.58710000  1
  C  C36  1  0.71760000  0.58240000  0.72540000  1
  C  C37  1  0.94500000  0.06120000  0.24980000  1
  C  C38  1  0.64810000  0.62560000  0.69270000  1
  C  C39  1  0.21450000  0.05930000  0.25920000  1
  C  C40  1  0.51460000  0.71550000  0.62430000  1
  C  C41  1  0.60680000  0.61840000  0.72600000  1
  C  C42  1  0.40130000  0.15280000  0.20910000  1
  C  C43  1  0.20040000  0.76290000  0.60330000  1
  C  C44  1  0.27670000  0.18440000  0.19970000  1
  C  C45  1  0.40590000  0.20660000  0.18110000  1
  C  C46  1  0.39480000  0.09740000  0.30300000  1
  C  C47  1  0.39490000  0.64210000  0.75960000  1
  C  C48  1  0.03090000  0.19630000  0.21240000  1
  C  C49  1  0.56500000  0.76330000  0.64670000  1
  C  C50  1  0.40130000  0.78530000  0.63460000  1
  C  C51  1  0.66690000  0.86440000  0.55730000  1
  C  C52  1  0.30480000  0.24980000  0.18860000  1
  C  C53  1  0.86480000  0.85700000  0.58240000  1
  C  C54  1  0.02250000  0.06710000  0.37440000  1
  C  C55  1  0.40290000  0.60330000  0.84040000  1
  C  C56  1  0.23550000  0.05930000  0.39420000  1
  C  C57  1  0.45890000  0.58710000  0.86860000  1
  C  C58  1  0.04470000  0.25920000  0.19990000  1
  C  C59  1  0.94620000  0.23910000  0.22150000  1
  C  C60  1  0.38720000  0.91570000  0.54590000  1
  C  C61  1  0.20940000  0.64820000  0.81800000  1
  C  C62  1  0.89030000  0.37570000  0.09120000  1
  C  C63  1  0.91830000  0.35330000  0.11660000  1
  C  C64  1  0.63040000  0.90670000  0.56750000  1
  C  C65  1  0.75280000  0.11750000  0.35790000  1
  C  C66  1  0.43880000  0.83020000  0.64820000  1
  C  C67  1  0.23330000  0.63460000  0.84930000  1
  C  C68  1  0.98840000  0.10760000  0.38160000  1
  C  C69  1  0.09180000  0.69700000  0.79440000  1
  C  C70  1  0.63880000  0.42510000  0.07030000  1
  C  C71  1  0.68520000  0.40230000  0.09730000  1
  C  C72  1  0.31480000  0.59770000  0.90270000  1
  C  C73  1  0.36120000  0.57490000  0.92970000  1
  C  C74  1  0.90820000  0.30300000  0.20560000  1
  C  C75  1  0.01160000  0.89240000  0.61840000  1
  C  C76  1  0.76670000  0.36540000  0.15070000  1
  C  C77  1  0.56120000  0.16980000  0.35180000  1
  C  C78  1  0.24720000  0.88250000  0.64210000  1
  C  C79  1  0.36960000  0.09330000  0.43250000  1
  C  C80  1  0.08170000  0.64670000  0.88340000  1
  C  C81  1  0.10970000  0.62430000  0.90880000  1
  C  C82  1  0.79060000  0.35180000  0.18200000  1
  C  C83  1  0.61280000  0.08430000  0.45410000  1
  C  C84  1  0.05380000  0.76090000  0.77850000  1
  C  C85  1  0.95530000  0.74080000  0.80010000  1
  C  C86  1  0.54110000  0.41290000  0.13140000  1
  C  C87  1  0.76450000  0.94070000  0.60580000  1
  C  C88  1  0.59710000  0.39670000  0.15960000  1
  C  C89  1  0.97750000  0.93290000  0.62560000  1
  C  C90  1  0.13520000  0.14300000  0.41760000  1
  C  C91  1  0.69520000  0.75020000  0.81140000  1
  C  C92  1  0.33310000  0.13560000  0.44270000  1
  C  C93  1  0.59870000  0.21470000  0.36540000  1
  C  C94  1  0.43500000  0.23670000  0.35330000  1
  C  C95  1  0.96910000  0.80370000  0.78760000  1
  C  C96  1  0.60510000  0.35790000  0.24040000  1
  C  C97  1  0.60520000  0.90260000  0.69700000  1
  C  C98  1  0.59410000  0.79340000  0.81890000  1
  C  C99  1  0.72330000  0.81560000  0.80030000  1
  C  C100  1  0.79960000  0.23710000  0.39670000  1
  C  C101  1  0.59870000  0.84720000  0.79090000  1
  C  C102  1  0.39320000  0.38160000  0.27400000  1
  C  C103  1  0.48540000  0.28450000  0.37570000  1
  C  C104  1  0.78550000  0.94070000  0.74080000  1
  C  C105  1  0.35190000  0.37440000  0.30730000  1
  C  C106  1  0.05500000  0.93880000  0.75020000  1
  C  C107  1  0.28240000  0.41760000  0.27460000  1
  C  C108  1  0.87180000  0.28150000  0.41290000  1
  C  C109  1  0.71710000  0.30500000  0.40230000  1
  C  C110  1  0.47150000  0.63020000  0.08430000  1
  C  C111  1  0.43150000  0.07030000  0.64520000  1
  C  C112  1  0.82380000  0.66510000  0.05930000  1
  C  C113  1  0.15870000  0.39420000  0.33490000  1
  C  C114  1  0.19220000  0.79090000  0.94370000  1
  C  C115  1  0.70710000  0.98240000  0.76090000  1
  C  C116  1  0.10960000  0.44270000  0.30710000  1
  C  C117  1  0.72370000  0.66080000  0.09330000  1
  C  C118  1  0.04460000  0.69270000  0.06710000  1
  C  C119  1  0.19930000  0.97450000  0.79340000  1
  C  C120  1  0.81850000  0.78760000  0.98390000  1
  C  C121  1  0.06290000  0.43250000  0.33920000  1
  C  C122  1  0.78630000  0.35480000  0.42510000  1
  C  C123  1  0.07700000  0.80030000  0.98470000  1
  C  C124  1  0.41210000  0.09730000  0.69500000  1
  C  C125  1  0.72470000  0.77850000  0.01760000  1
  C  C126  1  0.20090000  0.09120000  0.71550000  1
  C  C127  1  0.83460000  0.01610000  0.80370000  1
  C  C128  1  0.84130000  0.45410000  0.36980000  1
  C  C129  1  0.80250000  0.69290000  0.13560000  1
  C  C130  1  0.09230000  0.01530000  0.81560000  1
  C  C131  1  0.11920000  0.72600000  0.10760000  1
  C  C132  1  0.22480000  0.81890000  0.02550000  1
  C  C133  1  0.59030000  0.13140000  0.71850000  1
  C  C134  1  0.84480000  0.80010000  0.05930000  1
  C  C135  1  0.00780000  0.72540000  0.14300000  1
  C  C136  1  0.11620000  0.81140000  0.06120000  1
  C  C137  1  0.36470000  0.75960000  0.11750000  1
  C  C138  1  0.19830000  0.11660000  0.76330000  1
  C  C139  1  0.70260000  0.79440000  0.09740000  1
  C  C140  1  0.24850000  0.05630000  0.84720000  1
  C  C141  1  0.56250000  0.15960000  0.76290000  1
  C  C142  1  0.38400000  0.15070000  0.78530000  1
  C  C143  1  0.60860000  0.81800000  0.16980000  1
  N  N144  1  0.24800000  0.17640000  0.85860000  1
  N  N145  1  0.61010000  0.20660000  0.84370000  1
  N  N146  1  0.51340000  0.23290000  0.91430000  1
  N  N147  1  0.59910000  0.08570000  0.31860000  1
  N  N148  1  0.40350000  0.63710000  0.79340000  1
  N  N149  1  0.28050000  0.68140000  0.76710000  1
  N  N150  1  0.38940000  0.14140000  0.31780000  1
  N  N151  1  0.23360000  0.84370000  0.63710000  1
  N  N152  1  0.92840000  0.31780000  0.17640000  1
  N  N153  1  0.07160000  0.68220000  0.82360000  1
  N  N154  1  0.76640000  0.15630000  0.36290000  1
  N  N155  1  0.61060000  0.85860000  0.68220000  1
  N  N156  1  0.71950000  0.31860000  0.23290000  1
  N  N157  1  0.59650000  0.36290000  0.20660000  1
  N  N158  1  0.40090000  0.91430000  0.68140000  1
  N  N159  1  0.48660000  0.76710000  0.08570000  1
  N  N160  1  0.38990000  0.79340000  0.15630000  1
  N  N161  1  0.75200000  0.82360000  0.14140000  1
  O  O162  1  0.45550000  0.09140000  0.92610000  1
  O  O163  1  0.97830000  0.45670000  0.57120000  1
  O  O164  1  0.02050000  0.10930000  0.92020000  1
  O  O165  1  0.25960000  0.49380000  0.54100000  1
  O  O166  1  0.92550000  0.95960000  0.09190000  1
  O  O167  1  0.80580000  0.50780000  0.54560000  1
  O  O168  1  0.47463000  0.56606000  0.53083000  1
  O  O169  1  0.37100000  0.61110000  0.48990000  1
  O  O170  1  0.96590000  0.13230000  0.04040000  1
  O  O171  1  0.69460000  0.64490000  0.55690000  1
  O  O172  1  0.16640000  0.09190000  0.13230000  1
  O  O173  1  0.52940000  0.07390000  0.16530000  1
  O  O174  1  0.63590000  0.16530000  0.09140000  1
  O  O175  1  0.04970000  0.91200000  0.35510000  1
  O  O176  1  0.75990000  0.87880000  0.38890000  1
  O  O177  1  0.10030000  0.07980000  0.18910000  1
  O  O178  1  0.08880000  0.18910000  0.10930000  1
  O  O179  1  0.40710000  0.42880000  0.88550000  1
  O  O180  1  0.47840000  0.88550000  0.45670000  1
  O  O181  1  0.11890000  0.48990000  0.87880000  1
  O  O182  1  0.90857000  0.96477000  0.43394000  1
  O  O183  1  0.71860000  0.45900000  0.95280000  1
  O  O184  1  0.26020000  0.45440000  0.96220000  1
  O  O185  1  0.23420000  0.95280000  0.49380000  1
  O  O186  1  0.86230000  0.55690000  0.91200000  1
  O  O187  1  0.70200000  0.96220000  0.50780000  1
  O  O188  1  0.05620000  0.53083000  0.96477000  1
  O  O189  1  0.94380000  0.46917000  0.03523000  1
  O  O190  1  0.29800000  0.03780000  0.49220000  1
  O  O191  1  0.13770000  0.44310000  0.08800000  1
  O  O192  1  0.76580000  0.04720000  0.50620000  1
  O  O193  1  0.73980000  0.54560000  0.03780000  1
  O  O194  1  0.28140000  0.54100000  0.04720000  1
  O  O195  1  0.09143000  0.03523000  0.56606000  1
  O  O196  1  0.88110000  0.51010000  0.12120000  1
  O  O197  1  0.52160000  0.11450000  0.54330000  1
  O  O198  1  0.59290000  0.57120000  0.11450000  1
  O  O199  1  0.91120000  0.81090000  0.89070000  1
  O  O200  1  0.89970000  0.92020000  0.81090000  1
  O  O201  1  0.24010000  0.12120000  0.61110000  1
  O  O202  1  0.95030000  0.08800000  0.64490000  1
  O  O203  1  0.36410000  0.83470000  0.90860000  1
  O  O204  1  0.47060000  0.92610000  0.83470000  1
  O  O205  1  0.83360000  0.90810000  0.86770000  1
  O  O206  1  0.30540000  0.35510000  0.44310000  1
  O  O207  1  0.03410000  0.86770000  0.95960000  1
  O  O208  1  0.62900000  0.38890000  0.51010000  1
  O  O209  1  0.52537000  0.43394000  0.46917000  1
  O  O210  1  0.19420000  0.49220000  0.45440000  1
  O  O211  1  0.07450000  0.04040000  0.90810000  1
  O  O212  1  0.74040000  0.50620000  0.45900000  1
  O  O213  1  0.97950000  0.89070000  0.07980000  1
  O  O214  1  0.02170000  0.54330000  0.42880000  1
  O  O215  1  0.54450000  0.90860000  0.07390000  1
  P  P216  1  0.80242000  0.92569000  0.09857000  1
  P  P217  1  0.05175000  0.50018000  0.57017000  1
  P  P218  1  0.44757000  0.61582000  0.53789000  1
  P  P219  1  0.87673000  0.17288000  0.07431000  1
  P  P220  1  0.29615000  0.09857000  0.17288000  1
  P  P221  1  0.83175000  0.92207000  0.38418000  1
  P  P222  1  0.48158000  0.42983000  0.93001000  1
  P  P223  1  0.44843000  0.93001000  0.50018000  1
  P  P224  1  0.09032000  0.53789000  0.92207000  1
  P  P225  1  0.90968000  0.46211000  0.07793000  1
  P  P226  1  0.55157000  0.06999000  0.49982000  1
  P  P227  1  0.51842000  0.57017000  0.06999000  1
  P  P228  1  0.16825000  0.07793000  0.61582000  1
  P  P229  1  0.70385000  0.90143000  0.82712000  1
  P  P230  1  0.12327000  0.82712000  0.92569000  1
  P  P231  1  0.55243000  0.38418000  0.46211000  1
  P  P232  1  0.94825000  0.49982000  0.42983000  1
  P  P233  1  0.19758000  0.07431000  0.90143000  1
  Zr  Zr234  1  0.50000000  0.50000000  0.50000000  1
  Zr  Zr235  1  0.00000000  1.00000000  0.50000000  1
  Zr  Zr236  1  1.00000000  0.50000000  1.00000000  1
