# generated using pymatgen
data_TbH11(C7O2)3
_symmetry_space_group_name_H-M   'P 1'
_cell_length_a   13.57200000
_cell_length_b   14.04900000
_cell_length_c   17.90108994
_cell_angle_alpha   100.46887306
_cell_angle_beta   112.27689702
_cell_angle_gamma   90.00000000
_symmetry_Int_Tables_number   1
_chemical_formula_structural   TbH11(C7O2)3
_chemical_formula_sum   'Tb4 H44 C84 O24'
_cell_volume   3097.01061875
_cell_formula_units_Z   4
loop_
 _symmetry_equiv_pos_site_id
 _symmetry_equiv_pos_as_xyz
  1  'x, y, z'
loop_
 _atom_site_type_symbol
 _atom_site_label
 _atom_site_symmetry_multiplicity
 _atom_site_fract_x
 _atom_site_fract_y
 _atom_site_fract_z
 _atom_site_occupancy
  C  C0  1  0.17810000  0.59960000  0.00920000  1
  C  C1  1  0.83110000  0.09960000  0.00920000  1
  C  C2  1  0.27990000  0.57620000  0.02640000  1
  C  C3  1  0.74650000  0.07620000  0.02640000  1
  C  C4  1  0.13527000  0.59760000  0.06834000  1
  C  C5  1  0.93307000  0.09760000  0.06834000  1
  C  C6  1  0.18539000  0.87140000  0.07098000  1
  C  C7  1  0.88559000  0.37140000  0.07098000  1
  C  C8  1  0.34100000  0.55010000  0.10060000  1
  C  C9  1  0.75960000  0.05010000  0.10060000  1
  C  C10  1  0.10332000  0.88170000  0.10124000  1
  C  C11  1  0.99792000  0.38170000  0.10124000  1
  C  C12  1  0.27882000  0.84070000  0.11784000  1
  C  C13  1  0.83902000  0.34070000  0.11784000  1
  C  C14  1  0.19695000  0.56850000  0.14170000  1
  C  C15  1  0.94475000  0.06850000  0.14170000  1
  C  C16  1  0.29772000  0.54240000  0.15744000  1
  C  C17  1  0.85972000  0.04240000  0.15744000  1
  C  C18  1  0.12054000  0.86130000  0.17928000  1
  C  C19  1  0.05874000  0.36130000  0.17928000  1
  C  C20  1  0.29634000  0.82160000  0.19528000  1
  C  C21  1  0.89894000  0.32160000  0.19528000  1
  C  C22  1  0.21651000  0.83320000  0.22722000  1
  C  C23  1  0.01071000  0.33320000  0.22722000  1
  C  C24  1  0.36196000  0.50810000  0.23492000  1
  C  C25  1  0.87296000  0.00810000  0.23492000  1
  C  C26  1  0.23915000  0.81800000  0.31210000  1
  C  C27  1  0.07295000  0.31800000  0.31210000  1
  C  C28  1  0.30902000  0.75180000  0.34564000  1
  C  C29  1  0.03662000  0.25180000  0.34564000  1
  C  C30  1  0.19172000  0.87220000  0.36024000  1
  C  C31  1  0.16852000  0.37220000  0.36024000  1
  C  C32  1  0.33488000  0.74090000  0.42656000  1
  C  C33  1  0.09168000  0.24090000  0.42656000  1
  C  C34  1  0.22359000  0.36360000  0.44218000  1
  C  C35  1  0.21859000  0.86360000  0.44218000  1
  C  C36  1  0.40784000  0.66430000  0.45948000  1
  C  C37  1  0.05164000  0.16430000  0.45948000  1
  C  C38  1  0.29158000  0.79890000  0.47556000  1
  C  C39  1  0.18398000  0.29890000  0.47556000  1
  C  C40  1  0.32314000  0.42600000  0.49468000  1
  C  C41  1  0.17154000  0.92600000  0.49468000  1
  C  C42  1  0.67686000  0.57400000  0.50532000  1
  C  C43  1  0.82846000  0.07400000  0.50532000  1
  C  C44  1  0.70842000  0.20110000  0.52444000  1
  C  C45  1  0.81602000  0.70110000  0.52444000  1
  C  C46  1  0.59216000  0.33570000  0.54052000  1
  C  C47  1  0.94836000  0.83570000  0.54052000  1
  C  C48  1  0.77641000  0.63640000  0.55782000  1
  C  C49  1  0.78141000  0.13640000  0.55782000  1
  C  C50  1  0.66512000  0.25910000  0.57344000  1
  C  C51  1  0.90832000  0.75910000  0.57344000  1
  C  C52  1  0.80828000  0.12780000  0.63976000  1
  C  C53  1  0.83148000  0.62780000  0.63976000  1
  C  C54  1  0.69098000  0.24820000  0.65436000  1
  C  C55  1  0.96338000  0.74820000  0.65436000  1
  C  C56  1  0.76085000  0.18200000  0.68790000  1
  C  C57  1  0.92705000  0.68200000  0.68790000  1
  C  C58  1  0.63804000  0.49190000  0.76508000  1
  C  C59  1  0.12704000  0.99190000  0.76508000  1
  C  C60  1  0.78349000  0.16680000  0.77278000  1
  C  C61  1  0.98929000  0.66680000  0.77278000  1
  C  C62  1  0.70366000  0.17840000  0.80472000  1
  C  C63  1  0.10106000  0.67840000  0.80472000  1
  C  C64  1  0.87946000  0.13870000  0.82072000  1
  C  C65  1  0.94126000  0.63870000  0.82072000  1
  C  C66  1  0.70228000  0.45760000  0.84256000  1
  C  C67  1  0.14028000  0.95760000  0.84256000  1
  C  C68  1  0.80305000  0.43150000  0.85830000  1
  C  C69  1  0.05525000  0.93150000  0.85830000  1
  C  C70  1  0.72118000  0.15930000  0.88216000  1
  C  C71  1  0.16098000  0.65930000  0.88216000  1
  C  C72  1  0.89668000  0.11830000  0.89876000  1
  C  C73  1  0.00208000  0.61830000  0.89876000  1
  C  C74  1  0.65900000  0.44990000  0.89940000  1
  C  C75  1  0.24040000  0.94990000  0.89940000  1
  C  C76  1  0.81461000  0.12860000  0.92902000  1
  C  C77  1  0.11441000  0.62860000  0.92902000  1
  C  C78  1  0.86473000  0.40240000  0.93166000  1
  C  C79  1  0.06693000  0.90240000  0.93166000  1
  C  C80  1  0.72010000  0.42380000  0.97360000  1
  C  C81  1  0.25350000  0.92380000  0.97360000  1
  C  C82  1  0.82190000  0.40040000  0.99080000  1
  C  C83  1  0.16890000  0.90040000  0.99080000  1
  H  H84  1  0.32220000  0.92240000  0.01240000  1
  H  H85  1  0.69020000  0.42240000  0.01240000  1
  H  H86  1  0.06630000  0.61550000  0.05920000  1
  H  H87  1  0.99290000  0.11550000  0.05920000  1
  H  H88  1  0.03790000  0.90200000  0.06980000  1
  H  H89  1  0.03190000  0.40200000  0.06980000  1
  H  H90  1  0.33280000  0.83210000  0.09780000  1
  H  H91  1  0.76500000  0.33210000  0.09780000  1
  H  H92  1  0.41210000  0.53780000  0.11200000  1
  H  H93  1  0.69990000  0.03780000  0.11200000  1
  H  H94  1  0.16770000  0.56700000  0.18080000  1
  H  H95  1  0.01310000  0.06700000  0.18080000  1
  H  H96  1  0.13280000  0.36710000  0.19840000  1
  H  H97  1  0.06560000  0.86710000  0.19840000  1
  H  H98  1  0.36170000  0.80090000  0.22620000  1
  H  H99  1  0.86450000  0.30090000  0.22620000  1
  H  H100  1  0.33970000  0.71340000  0.31340000  1
  H  H101  1  0.97370000  0.21340000  0.31340000  1
  H  H102  1  0.19640000  0.41480000  0.33780000  1
  H  H103  1  0.14140000  0.91480000  0.33780000  1
  H  H104  1  0.68860000  0.20560000  0.46960000  1
  H  H105  1  0.78100000  0.70560000  0.46960000  1
  H  H106  1  0.31140000  0.79440000  0.53040000  1
  H  H107  1  0.21900000  0.29440000  0.53040000  1
  H  H108  1  0.80360000  0.58520000  0.66220000  1
  H  H109  1  0.85860000  0.08520000  0.66220000  1
  H  H110  1  0.66030000  0.28660000  0.68660000  1
  H  H111  1  0.02630000  0.78660000  0.68660000  1
  H  H112  1  0.63830000  0.19910000  0.77380000  1
  H  H113  1  0.13550000  0.69910000  0.77380000  1
  H  H114  1  0.86720000  0.63290000  0.80160000  1
  H  H115  1  0.93440000  0.13290000  0.80160000  1
  H  H116  1  0.83230000  0.43300000  0.81920000  1
  H  H117  1  0.98690000  0.93300000  0.81920000  1
  H  H118  1  0.58790000  0.46220000  0.88800000  1
  H  H119  1  0.30010000  0.96220000  0.88800000  1
  H  H120  1  0.66720000  0.16790000  0.90220000  1
  H  H121  1  0.23500000  0.66790000  0.90220000  1
  H  H122  1  0.96210000  0.09800000  0.93020000  1
  H  H123  1  0.96810000  0.59800000  0.93020000  1
  H  H124  1  0.93370000  0.38450000  0.94080000  1
  H  H125  1  0.00710000  0.88450000  0.94080000  1
  H  H126  1  0.67780000  0.07760000  0.98760000  1
  H  H127  1  0.30980000  0.57760000  0.98760000  1
  O  O128  1  0.45992000  0.50660000  0.25724000  1
  O  O129  1  0.79732000  0.00660000  0.25724000  1
  O  O130  1  0.31321000  0.48170000  0.27582000  1
  O  O131  1  0.96261000  0.98170000  0.27582000  1
  O  O132  1  0.44887000  0.61770000  0.41394000  1
  O  O133  1  0.96507000  0.11770000  0.41394000  1
  O  O134  1  0.65320000  0.55130000  0.42940000  1
  O  O135  1  0.77620000  0.05130000  0.42940000  1
  O  O136  1  0.38272000  0.45560000  0.46164000  1
  O  O137  1  0.07892000  0.95560000  0.46164000  1
  O  O138  1  0.57600000  0.34470000  0.46820000  1
  O  O139  1  0.89220000  0.84470000  0.46820000  1
  O  O140  1  0.42400000  0.65530000  0.53180000  1
  O  O141  1  0.10780000  0.15530000  0.53180000  1
  O  O142  1  0.61728000  0.54440000  0.53836000  1
  O  O143  1  0.92108000  0.04440000  0.53836000  1
  O  O144  1  0.34680000  0.44870000  0.57060000  1
  O  O145  1  0.22380000  0.94870000  0.57060000  1
  O  O146  1  0.55113000  0.38230000  0.58606000  1
  O  O147  1  0.03493000  0.88230000  0.58606000  1
  O  O148  1  0.68679000  0.51830000  0.72418000  1
  O  O149  1  0.03739000  0.01830000  0.72418000  1
  O  O150  1  0.54008000  0.49340000  0.74276000  1
  O  O151  1  0.20268000  0.99340000  0.74276000  1
  Tb  Tb152  1  0.48612000  0.45476000  0.38442000  1
  Tb  Tb153  1  0.89830000  0.95476000  0.38442000  1
  Tb  Tb154  1  0.51388000  0.54524000  0.61558000  1
  Tb  Tb155  1  0.10170000  0.04524000  0.61558000  1
