# generated using pymatgen
data_Li2H3C7NO4
_symmetry_space_group_name_H-M   'P 1'
_cell_length_a   8.59580000
_cell_length_b   15.80000000
_cell_length_c   18.46000000
_cell_angle_alpha   90.00000000
_cell_angle_beta   90.00000000
_cell_angle_gamma   90.00000000
_symmetry_Int_Tables_number   1
_chemical_formula_structural   Li2H3C7NO4
_chemical_formula_sum   'Li16 H24 C56 N8 O32'
_cell_volume   2507.11979440
_cell_formula_units_Z   8
loop_
 _symmetry_equiv_pos_site_id
 _symmetry_equiv_pos_as_xyz
  1  'x, y, z'
loop_
 _atom_site_type_symbol
 _atom_site_label
 _atom_site_symmetry_multiplicity
 _atom_site_fract_x
 _atom_site_fract_y
 _atom_site_fract_z
 _atom_site_occupancy
  Li  Li0  1  0.08840000  0.45560000  0.95460000  1
  Li  Li1  1  0.08840000  0.54440000  0.54540000  1
  Li  Li2  1  0.10560000  0.41795000  0.67227000  1
  Li  Li3  1  0.10560000  0.58205000  0.82773000  1
  Li  Li4  1  0.39440000  0.08205000  0.17227000  1
  Li  Li5  1  0.39440000  0.91795000  0.32773000  1
  Li  Li6  1  0.41160000  0.04440000  0.45460000  1
  Li  Li7  1  0.41160000  0.95560000  0.04540000  1
  Li  Li8  1  0.58840000  0.04440000  0.95460000  1
  Li  Li9  1  0.58840000  0.95560000  0.54540000  1
  Li  Li10  1  0.60560000  0.08205000  0.67227000  1
  Li  Li11  1  0.60560000  0.91795000  0.82773000  1
  Li  Li12  1  0.89440000  0.41795000  0.17227000  1
  Li  Li13  1  0.89440000  0.58205000  0.32773000  1
  Li  Li14  1  0.91160000  0.45560000  0.45460000  1
  Li  Li15  1  0.91160000  0.54440000  0.04540000  1
  H  H16  1  0.13740000  0.36400000  0.38050000  1
  H  H17  1  0.13740000  0.63600000  0.11950000  1
  H  H18  1  0.19140000  0.25560000  0.29940000  1
  H  H19  1  0.19140000  0.74440000  0.20060000  1
  H  H20  1  0.21550000  0.28520000  0.04100000  1
  H  H21  1  0.21550000  0.71480000  0.45900000  1
  H  H22  1  0.28450000  0.21480000  0.54100000  1
  H  H23  1  0.28450000  0.78520000  0.95900000  1
  H  H24  1  0.30860000  0.24440000  0.79940000  1
  H  H25  1  0.30860000  0.75560000  0.70060000  1
  H  H26  1  0.36260000  0.13600000  0.88050000  1
  H  H27  1  0.36260000  0.86400000  0.61950000  1
  H  H28  1  0.63740000  0.13600000  0.38050000  1
  H  H29  1  0.63740000  0.86400000  0.11950000  1
  H  H30  1  0.69140000  0.24440000  0.29940000  1
  H  H31  1  0.69140000  0.75560000  0.20060000  1
  H  H32  1  0.71550000  0.21480000  0.04100000  1
  H  H33  1  0.71550000  0.78520000  0.45900000  1
  H  H34  1  0.78450000  0.28520000  0.54100000  1
  H  H35  1  0.78450000  0.71480000  0.95900000  1
  H  H36  1  0.80860000  0.25560000  0.79940000  1
  H  H37  1  0.80860000  0.74440000  0.70060000  1
  H  H38  1  0.86260000  0.36400000  0.88050000  1
  H  H39  1  0.86260000  0.63600000  0.61950000  1
  C  C40  1  0.16813000  0.36901000  0.52502000  1
  C  C41  1  0.16813000  0.63099000  0.97498000  1
  C  C42  1  0.17750000  0.31290000  0.39706000  1
  C  C43  1  0.17750000  0.68710000  0.10294000  1
  C  C44  1  0.18197000  0.39711000  0.82366000  1
  C  C45  1  0.18197000  0.60289000  0.67634000  1
  C  C46  1  0.20445000  0.30089000  0.47011000  1
  C  C47  1  0.20445000  0.69911000  0.02989000  1
  C  C48  1  0.21030000  0.24865000  0.34863000  1
  C  C49  1  0.21030000  0.75135000  0.15137000  1
  C  C50  1  0.22809000  0.32624000  0.87497000  1
  C  C51  1  0.22809000  0.67376000  0.62503000  1
  C  C52  1  0.23440000  0.27665000  0.99195000  1
  C  C53  1  0.23440000  0.72335000  0.50805000  1
  C  C54  1  0.26560000  0.22335000  0.49195000  1
  C  C55  1  0.26560000  0.77665000  0.00805000  1
  C  C56  1  0.27191000  0.17376000  0.37497000  1
  C  C57  1  0.27191000  0.82624000  0.12503000  1
  C  C58  1  0.28970000  0.25135000  0.84863000  1
  C  C59  1  0.28970000  0.74865000  0.65137000  1
  C  C60  1  0.29555000  0.19911000  0.97011000  1
  C  C61  1  0.29555000  0.80089000  0.52989000  1
  C  C62  1  0.31803000  0.10289000  0.32366000  1
  C  C63  1  0.31803000  0.89711000  0.17634000  1
  C  C64  1  0.32250000  0.18710000  0.89706000  1
  C  C65  1  0.32250000  0.81290000  0.60294000  1
  C  C66  1  0.33187000  0.13099000  0.02502000  1
  C  C67  1  0.33187000  0.86901000  0.47498000  1
  C  C68  1  0.66813000  0.13099000  0.52502000  1
  C  C69  1  0.66813000  0.86901000  0.97498000  1
  C  C70  1  0.67750000  0.18710000  0.39706000  1
  C  C71  1  0.67750000  0.81290000  0.10294000  1
  C  C72  1  0.68197000  0.10289000  0.82366000  1
  C  C73  1  0.68197000  0.89711000  0.67634000  1
  C  C74  1  0.70445000  0.19911000  0.47011000  1
  C  C75  1  0.70445000  0.80089000  0.02989000  1
  C  C76  1  0.71030000  0.25135000  0.34863000  1
  C  C77  1  0.71030000  0.74865000  0.15137000  1
  C  C78  1  0.72809000  0.17376000  0.87497000  1
  C  C79  1  0.72809000  0.82624000  0.62503000  1
  C  C80  1  0.73440000  0.22335000  0.99195000  1
  C  C81  1  0.73440000  0.77665000  0.50805000  1
  C  C82  1  0.76560000  0.27665000  0.49195000  1
  C  C83  1  0.76560000  0.72335000  0.00805000  1
  C  C84  1  0.77191000  0.32624000  0.37497000  1
  C  C85  1  0.77191000  0.67376000  0.12503000  1
  C  C86  1  0.78970000  0.24865000  0.84863000  1
  C  C87  1  0.78970000  0.75135000  0.65137000  1
  C  C88  1  0.79555000  0.30089000  0.97011000  1
  C  C89  1  0.79555000  0.69911000  0.52989000  1
  C  C90  1  0.81803000  0.39711000  0.32366000  1
  C  C91  1  0.81803000  0.60289000  0.17634000  1
  C  C92  1  0.82250000  0.31290000  0.89706000  1
  C  C93  1  0.82250000  0.68710000  0.60294000  1
  C  C94  1  0.83187000  0.36901000  0.02502000  1
  C  C95  1  0.83187000  0.63099000  0.47498000  1
  N  N96  1  0.20164000  0.33961000  0.94578000  1
  N  N97  1  0.20164000  0.66039000  0.55422000  1
  N  N98  1  0.29836000  0.16039000  0.44578000  1
  N  N99  1  0.29836000  0.83961000  0.05422000  1
  N  N100  1  0.70164000  0.16039000  0.94578000  1
  N  N101  1  0.70164000  0.83961000  0.55422000  1
  N  N102  1  0.79836000  0.33961000  0.44578000  1
  N  N103  1  0.79836000  0.66039000  0.05422000  1
  O  O104  1  0.11322000  0.43745000  0.49963000  1
  O  O105  1  0.11322000  0.56255000  0.00037000  1
  O  O106  1  0.11970000  0.46125000  0.85206000  1
  O  O107  1  0.11970000  0.53875000  0.64794000  1
  O  O108  1  0.19333000  0.35445000  0.58953000  1
  O  O109  1  0.19333000  0.64555000  0.91047000  1
  O  O110  1  0.20767000  0.38531000  0.75858000  1
  O  O111  1  0.20767000  0.61469000  0.74142000  1
  O  O112  1  0.29233000  0.11469000  0.25858000  1
  O  O113  1  0.29233000  0.88531000  0.24142000  1
  O  O114  1  0.30667000  0.14555000  0.08953000  1
  O  O115  1  0.30667000  0.85445000  0.41047000  1
  O  O116  1  0.38030000  0.03875000  0.35206000  1
  O  O117  1  0.38030000  0.96125000  0.14794000  1
  O  O118  1  0.38678000  0.06255000  0.99963000  1
  O  O119  1  0.38678000  0.93745000  0.50037000  1
  O  O120  1  0.61322000  0.06255000  0.49963000  1
  O  O121  1  0.61322000  0.93745000  0.00037000  1
  O  O122  1  0.61970000  0.03875000  0.85206000  1
  O  O123  1  0.61970000  0.96125000  0.64794000  1
  O  O124  1  0.69333000  0.14555000  0.58953000  1
  O  O125  1  0.69333000  0.85445000  0.91047000  1
  O  O126  1  0.70767000  0.11469000  0.75858000  1
  O  O127  1  0.70767000  0.88531000  0.74142000  1
  O  O128  1  0.79233000  0.38531000  0.25858000  1
  O  O129  1  0.79233000  0.61469000  0.24142000  1
  O  O130  1  0.80667000  0.35445000  0.08953000  1
  O  O131  1  0.80667000  0.64555000  0.41047000  1
  O  O132  1  0.88030000  0.46125000  0.35206000  1
  O  O133  1  0.88030000  0.53875000  0.14794000  1
  O  O134  1  0.88678000  0.43745000  0.99963000  1
  O  O135  1  0.88678000  0.56255000  0.50037000  1
