# generated using pymatgen
data_CdH14(C9N7)2
_symmetry_space_group_name_H-M   'P 1'
_cell_length_a   13.41569274
_cell_length_b   13.41569274
_cell_length_c   13.41569274
_cell_angle_alpha   96.92771149
_cell_angle_beta   96.92771149
_cell_angle_gamma   96.92771149
_symmetry_Int_Tables_number   1
_chemical_formula_structural   CdH14(C9N7)2
_chemical_formula_sum   'Cd3 H42 C54 N42'
_cell_volume   2356.95043788
_cell_formula_units_Z   3
loop_
 _symmetry_equiv_pos_site_id
 _symmetry_equiv_pos_as_xyz
  1  'x, y, z'
loop_
 _atom_site_type_symbol
 _atom_site_label
 _atom_site_symmetry_multiplicity
 _atom_site_fract_x
 _atom_site_fract_y
 _atom_site_fract_z
 _atom_site_occupancy
  C  C0  1  0.16430000  0.61460000  0.69880000  1
  C  C1  1  0.80730000  0.29220000  0.24520000  1
  C  C2  1  0.60400000  0.70080000  0.34120000  1
  C  C3  1  0.73050000  0.74810000  0.54390000  1
  C  C4  1  0.56150000  0.66760000  0.24050000  1
  C  C5  1  0.74810000  0.54390000  0.73050000  1
  C  C6  1  0.13310000  0.87000000  0.15350000  1
  C  C7  1  0.24050000  0.56150000  0.66760000  1
  C  C8  1  0.35820000  0.69760000  0.75610000  1
  C  C9  1  0.24710000  0.98140000  0.24730000  1
  C  C10  1  0.24730000  0.24710000  0.98140000  1
  C  C11  1  0.69760000  0.75610000  0.35820000  1
  C  C12  1  0.49070000  0.82500000  0.86580000  1
  C  C13  1  0.82500000  0.86580000  0.49070000  1
  C  C14  1  0.15350000  0.13310000  0.87000000  1
  C  C15  1  0.61460000  0.69880000  0.16430000  1
  C  C16  1  0.34120000  0.60400000  0.70080000  1
  C  C17  1  0.30120000  0.83570000  0.38540000  1
  C  C18  1  0.45610000  0.26950000  0.25190000  1
  C  C19  1  0.24520000  0.80730000  0.29220000  1
  C  C20  1  0.86580000  0.49070000  0.82500000  1
  C  C21  1  0.87000000  0.15350000  0.13310000  1
  C  C22  1  0.75610000  0.35820000  0.69760000  1
  C  C23  1  0.70080000  0.34120000  0.60400000  1
  C  C24  1  0.33240000  0.75950000  0.43850000  1
  C  C25  1  0.70780000  0.75480000  0.19270000  1
  C  C26  1  0.98140000  0.24730000  0.24710000  1
  C  C27  1  0.01860000  0.75270000  0.75290000  1
  C  C28  1  0.29220000  0.24520000  0.80730000  1
  C  C29  1  0.66760000  0.24050000  0.56150000  1
  C  C30  1  0.29920000  0.65880000  0.39600000  1
  C  C31  1  0.24390000  0.64180000  0.30240000  1
  C  C32  1  0.13000000  0.84650000  0.86690000  1
  C  C33  1  0.13420000  0.50930000  0.17500000  1
  C  C34  1  0.75480000  0.19270000  0.70780000  1
  C  C35  1  0.54390000  0.73050000  0.74810000  1
  C  C36  1  0.69880000  0.16430000  0.61460000  1
  C  C37  1  0.65880000  0.39600000  0.29920000  1
  C  C38  1  0.38540000  0.30120000  0.83570000  1
  C  C39  1  0.84650000  0.86690000  0.13000000  1
  C  C40  1  0.17500000  0.13420000  0.50930000  1
  C  C41  1  0.50930000  0.17500000  0.13420000  1
  C  C42  1  0.30240000  0.24390000  0.64180000  1
  C  C43  1  0.75270000  0.75290000  0.01860000  1
  C  C44  1  0.75290000  0.01860000  0.75270000  1
  C  C45  1  0.64180000  0.30240000  0.24390000  1
  C  C46  1  0.75950000  0.43850000  0.33240000  1
  C  C47  1  0.86690000  0.13000000  0.84650000  1
  C  C48  1  0.25190000  0.45610000  0.26950000  1
  C  C49  1  0.43850000  0.33240000  0.75950000  1
  C  C50  1  0.26950000  0.25190000  0.45610000  1
  C  C51  1  0.39600000  0.29920000  0.65880000  1
  C  C52  1  0.19270000  0.70780000  0.75480000  1
  C  C53  1  0.83570000  0.38540000  0.30120000  1
  Cd  Cd54  1  0.00000000  0.00000000  0.00000000  1
  Cd  Cd55  1  0.20472000  0.20472000  0.20472000  1
  Cd  Cd56  1  0.79528000  0.79528000  0.79528000  1
  H  H57  1  0.56940000  0.68550000  0.39470000  1
  H  H58  1  0.90370000  0.41240000  0.31810000  1
  H  H59  1  0.68290000  0.69230000  0.54590000  1
  H  H60  1  0.44850000  0.85550000  0.90660000  1
  H  H61  1  0.49950000  0.62600000  0.22500000  1
  H  H62  1  0.69230000  0.54590000  0.68290000  1
  H  H63  1  0.09360000  0.80860000  0.12690000  1
  H  H64  1  0.29610000  0.30070000  0.01220000  1
  H  H65  1  0.45410000  0.31710000  0.30770000  1
  H  H66  1  0.30070000  0.01220000  0.29610000  1
  H  H67  1  0.31810000  0.90370000  0.41240000  1
  H  H68  1  0.22500000  0.49950000  0.62600000  1
  H  H69  1  0.12690000  0.09360000  0.80860000  1
  H  H70  1  0.85550000  0.90660000  0.44850000  1
  H  H71  1  0.80860000  0.12690000  0.09360000  1
  H  H72  1  0.58760000  0.68190000  0.09630000  1
  H  H73  1  0.68550000  0.39470000  0.56940000  1
  H  H74  1  0.01220000  0.29610000  0.30070000  1
  H  H75  1  0.60530000  0.43060000  0.31450000  1
  H  H76  1  0.37400000  0.77500000  0.50050000  1
  H  H77  1  0.09340000  0.55150000  0.14450000  1
  H  H78  1  0.90660000  0.44850000  0.85550000  1
  H  H79  1  0.62600000  0.22500000  0.49950000  1
  H  H80  1  0.39470000  0.56940000  0.68550000  1
  H  H81  1  0.98780000  0.70390000  0.69930000  1
  H  H82  1  0.31450000  0.60530000  0.43060000  1
  H  H83  1  0.41240000  0.31810000  0.90370000  1
  H  H84  1  0.19140000  0.87310000  0.90640000  1
  H  H85  1  0.14450000  0.09340000  0.55150000  1
  H  H86  1  0.87310000  0.90640000  0.19140000  1
  H  H87  1  0.77500000  0.50050000  0.37400000  1
  H  H88  1  0.68190000  0.09630000  0.58760000  1
  H  H89  1  0.69930000  0.98780000  0.70390000  1
  H  H90  1  0.54590000  0.68290000  0.69230000  1
  H  H91  1  0.70390000  0.69930000  0.98780000  1
  H  H92  1  0.90640000  0.19140000  0.87310000  1
  H  H93  1  0.30770000  0.45410000  0.31710000  1
  H  H94  1  0.50050000  0.37400000  0.77500000  1
  H  H95  1  0.55150000  0.14450000  0.09340000  1
  H  H96  1  0.31710000  0.30770000  0.45410000  1
  H  H97  1  0.09630000  0.58760000  0.68190000  1
  H  H98  1  0.43060000  0.31450000  0.60530000  1
  N  N99  1  0.28760000  0.75290000  0.78490000  1
  N  N100  1  0.18360000  0.19390000  0.02720000  1
  N  N101  1  0.78870000  0.79790000  0.62310000  1
  N  N102  1  0.12200000  0.95500000  0.12340000  1
  N  N103  1  0.12340000  0.12200000  0.95500000  1
  N  N104  1  0.19390000  0.02720000  0.18360000  1
  N  N105  1  0.79790000  0.62310000  0.78870000  1
  N  N106  1  0.84950000  0.87510000  0.58950000  1
  N  N107  1  0.74750000  0.78720000  0.45870000  1
  N  N108  1  0.21150000  0.88260000  0.23020000  1
  N  N109  1  0.87510000  0.58950000  0.84950000  1
  N  N110  1  0.97280000  0.81640000  0.80610000  1
  N  N111  1  0.88260000  0.23020000  0.21150000  1
  N  N112  1  0.04500000  0.87660000  0.87800000  1
  N  N113  1  0.37690000  0.21130000  0.20210000  1
  N  N114  1  0.23020000  0.21150000  0.88260000  1
  N  N115  1  0.78720000  0.45870000  0.74750000  1
  N  N116  1  0.45870000  0.74750000  0.78720000  1
  N  N117  1  0.75290000  0.78490000  0.28760000  1
  N  N118  1  0.58950000  0.84950000  0.87510000  1
  N  N119  1  0.21510000  0.71240000  0.24710000  1
  N  N120  1  0.78490000  0.28760000  0.75290000  1
  N  N121  1  0.41050000  0.15050000  0.12490000  1
  N  N122  1  0.24710000  0.21510000  0.71240000  1
  N  N123  1  0.54130000  0.25250000  0.21280000  1
  N  N124  1  0.21280000  0.54130000  0.25250000  1
  N  N125  1  0.76980000  0.78850000  0.11740000  1
  N  N126  1  0.62310000  0.78870000  0.79790000  1
  N  N127  1  0.95500000  0.12340000  0.12200000  1
  N  N128  1  0.11740000  0.76980000  0.78850000  1
  N  N129  1  0.02720000  0.18360000  0.19390000  1
  N  N130  1  0.12490000  0.41050000  0.15050000  1
  N  N131  1  0.78850000  0.11740000  0.76980000  1
  N  N132  1  0.25250000  0.21280000  0.54130000  1
  N  N133  1  0.15050000  0.12490000  0.41050000  1
  N  N134  1  0.20210000  0.37690000  0.21130000  1
  N  N135  1  0.80610000  0.97280000  0.81640000  1
  N  N136  1  0.87660000  0.87800000  0.04500000  1
  N  N137  1  0.87800000  0.04500000  0.87660000  1
  N  N138  1  0.21130000  0.20210000  0.37690000  1
  N  N139  1  0.81640000  0.80610000  0.97280000  1
  N  N140  1  0.71240000  0.24710000  0.21510000  1
