# generated using pymatgen
data_InH6(C2O)8
_symmetry_space_group_name_H-M   'P 1'
_cell_length_a   9.95540000
_cell_length_b   17.08140000
_cell_length_c   19.72440000
_cell_angle_alpha   90.00000000
_cell_angle_beta   90.00000000
_cell_angle_gamma   90.00000000
_symmetry_Int_Tables_number   1
_chemical_formula_structural   InH6(C2O)8
_chemical_formula_sum   'In4 H24 C64 O32'
_cell_volume   3354.17701327
_cell_formula_units_Z   4
loop_
 _symmetry_equiv_pos_site_id
 _symmetry_equiv_pos_as_xyz
  1  'x, y, z'
loop_
 _atom_site_type_symbol
 _atom_site_label
 _atom_site_symmetry_multiplicity
 _atom_site_fract_x
 _atom_site_fract_y
 _atom_site_fract_z
 _atom_site_occupancy
  In  In0  1  0.08612000  0.15986000  0.81872000  1
  In  In1  1  0.91388000  0.65986000  0.68128000  1
  In  In2  1  0.91388000  0.34014000  0.31872000  1
  In  In3  1  0.08612000  0.84014000  0.18128000  1
  H  H4  1  0.06540000  0.37410000  0.97990000  1
  H  H5  1  0.38600000  0.03310000  0.96050000  1
  H  H6  1  0.79180000  0.04020000  0.95820000  1
  H  H7  1  0.95170000  0.59320000  0.92350000  1
  H  H8  1  0.58250000  0.15990000  0.81670000  1
  H  H9  1  0.00780000  0.42390000  0.78210000  1
  H  H10  1  0.99220000  0.92390000  0.71790000  1
  H  H11  1  0.41750000  0.65990000  0.68330000  1
  H  H12  1  0.04830000  0.09320000  0.57650000  1
  H  H13  1  0.20820000  0.54020000  0.54180000  1
  H  H14  1  0.61400000  0.53310000  0.53950000  1
  H  H15  1  0.93460000  0.87410000  0.52010000  1
  H  H16  1  0.93460000  0.12590000  0.47990000  1
  H  H17  1  0.61400000  0.46690000  0.46050000  1
  H  H18  1  0.20820000  0.45980000  0.45820000  1
  H  H19  1  0.04830000  0.90680000  0.42350000  1
  H  H20  1  0.41750000  0.34010000  0.31670000  1
  H  H21  1  0.99220000  0.07610000  0.28210000  1
  H  H22  1  0.00780000  0.57610000  0.21790000  1
  H  H23  1  0.58250000  0.84010000  0.18330000  1
  H  H24  1  0.95170000  0.40680000  0.07650000  1
  H  H25  1  0.79180000  0.95980000  0.04180000  1
  H  H26  1  0.38600000  0.96690000  0.03950000  1
  H  H27  1  0.06540000  0.62590000  0.02010000  1
  C  C28  1  0.58630000  0.02640000  0.97040000  1
  C  C29  1  0.00960000  0.48810000  0.96390000  1
  C  C30  1  0.04230000  0.41080000  0.94560000  1
  C  C31  1  0.46800000  0.05060000  0.94110000  1
  C  C32  1  0.70700000  0.05480000  0.94010000  1
  C  C33  1  0.97520000  0.54090000  0.91240000  1
  C  C34  1  0.70060000  0.10310000  0.88480000  1
  C  C35  1  0.46160000  0.09970000  0.88390000  1
  C  C36  1  0.04160000  0.38790000  0.87960000  1
  C  C37  1  0.07410000  0.30450000  0.86030000  1
  C  C38  1  0.32750000  0.12340000  0.85780000  1
  C  C39  1  0.83360000  0.12970000  0.85710000  1
  C  C40  1  0.58260000  0.12660000  0.85530000  1
  C  C41  1  0.97540000  0.51720000  0.84590000  1
  C  C42  1  0.00830000  0.44010000  0.82810000  1
  C  C43  1  0.93910000  0.57270000  0.78920000  1
  C  C44  1  0.06090000  0.07270000  0.71080000  1
  C  C45  1  0.99170000  0.94010000  0.67190000  1
  C  C46  1  0.02460000  0.01720000  0.65410000  1
  C  C47  1  0.41740000  0.62660000  0.64470000  1
  C  C48  1  0.16640000  0.62970000  0.64290000  1
  C  C49  1  0.67250000  0.62340000  0.64220000  1
  C  C50  1  0.92590000  0.80450000  0.63970000  1
  C  C51  1  0.95840000  0.88790000  0.62040000  1
  C  C52  1  0.53840000  0.59970000  0.61610000  1
  C  C53  1  0.29940000  0.60310000  0.61520000  1
  C  C54  1  0.02480000  0.04090000  0.58760000  1
  C  C55  1  0.29300000  0.55480000  0.55990000  1
  C  C56  1  0.53200000  0.55060000  0.55890000  1
  C  C57  1  0.95770000  0.91080000  0.55440000  1
  C  C58  1  0.99040000  0.98810000  0.53610000  1
  C  C59  1  0.41370000  0.52640000  0.52960000  1
  C  C60  1  0.41370000  0.47360000  0.47040000  1
  C  C61  1  0.99040000  0.01190000  0.46390000  1
  C  C62  1  0.95770000  0.08920000  0.44560000  1
  C  C63  1  0.53200000  0.44940000  0.44110000  1
  C  C64  1  0.29300000  0.44520000  0.44010000  1
  C  C65  1  0.02480000  0.95910000  0.41240000  1
  C  C66  1  0.29940000  0.39690000  0.38480000  1
  C  C67  1  0.53840000  0.40030000  0.38390000  1
  C  C68  1  0.95840000  0.11210000  0.37960000  1
  C  C69  1  0.92590000  0.19550000  0.36030000  1
  C  C70  1  0.67250000  0.37660000  0.35780000  1
  C  C71  1  0.16640000  0.37030000  0.35710000  1
  C  C72  1  0.41740000  0.37340000  0.35530000  1
  C  C73  1  0.02460000  0.98280000  0.34590000  1
  C  C74  1  0.99170000  0.05990000  0.32810000  1
  C  C75  1  0.06090000  0.92730000  0.28920000  1
  C  C76  1  0.93910000  0.42730000  0.21080000  1
  C  C77  1  0.00830000  0.55990000  0.17190000  1
  C  C78  1  0.97540000  0.48280000  0.15410000  1
  C  C79  1  0.58260000  0.87340000  0.14470000  1
  C  C80  1  0.83360000  0.87030000  0.14290000  1
  C  C81  1  0.32750000  0.87660000  0.14220000  1
  C  C82  1  0.07410000  0.69550000  0.13970000  1
  C  C83  1  0.04160000  0.61210000  0.12040000  1
  C  C84  1  0.46160000  0.90030000  0.11610000  1
  C  C85  1  0.70060000  0.89690000  0.11520000  1
  C  C86  1  0.97520000  0.45910000  0.08760000  1
  C  C87  1  0.70700000  0.94520000  0.05990000  1
  C  C88  1  0.46800000  0.94940000  0.05890000  1
  C  C89  1  0.04230000  0.58920000  0.05440000  1
  C  C90  1  0.00960000  0.51190000  0.03610000  1
  C  C91  1  0.58630000  0.97360000  0.02960000  1
  O  O92  1  0.10030000  0.25608000  0.90554000  1
  O  O93  1  0.93810000  0.11190000  0.88960000  1
  O  O94  1  0.22600000  0.09855000  0.88933000  1
  O  O95  1  0.31620000  0.16550000  0.80626000  1
  O  O96  1  0.84130000  0.16590000  0.80290000  1
  O  O97  1  0.92650000  0.64476000  0.79948000  1
  O  O98  1  0.06950000  0.28481000  0.79863000  1
  O  O99  1  0.06980000  0.04504000  0.77064000  1
  O  O100  1  0.93020000  0.54504000  0.72936000  1
  O  O101  1  0.93050000  0.78481000  0.70137000  1
  O  O102  1  0.07350000  0.14476000  0.70052000  1
  O  O103  1  0.15870000  0.66590000  0.69710000  1
  O  O104  1  0.68380000  0.66550000  0.69374000  1
  O  O105  1  0.77400000  0.59855000  0.61067000  1
  O  O106  1  0.06190000  0.61190000  0.61040000  1
  O  O107  1  0.89970000  0.75608000  0.59446000  1
  O  O108  1  0.89970000  0.24392000  0.40554000  1
  O  O109  1  0.06190000  0.38810000  0.38960000  1
  O  O110  1  0.77400000  0.40145000  0.38933000  1
  O  O111  1  0.68380000  0.33450000  0.30626000  1
  O  O112  1  0.15870000  0.33410000  0.30290000  1
  O  O113  1  0.07350000  0.85524000  0.29948000  1
  O  O114  1  0.93050000  0.21519000  0.29863000  1
  O  O115  1  0.93020000  0.45496000  0.27064000  1
  O  O116  1  0.06980000  0.95496000  0.22936000  1
  O  O117  1  0.06950000  0.71519000  0.20137000  1
  O  O118  1  0.92650000  0.35524000  0.20052000  1
  O  O119  1  0.84130000  0.83410000  0.19710000  1
  O  O120  1  0.31620000  0.83450000  0.19374000  1
  O  O121  1  0.22600000  0.90145000  0.11067000  1
  O  O122  1  0.93810000  0.88810000  0.11040000  1
  O  O123  1  0.10030000  0.74392000  0.09446000  1
