# generated using pymatgen
data_Cu2H(C2N3)3
_symmetry_space_group_name_H-M   'P 1'
_cell_length_a   9.40980000
_cell_length_b   13.03893570
_cell_length_c   15.77855188
_cell_angle_alpha   69.73975692
_cell_angle_beta   72.65148201
_cell_angle_gamma   68.84853548
_symmetry_Int_Tables_number   1
_chemical_formula_structural   Cu2H(C2N3)3
_chemical_formula_sum   'Cu8 H4 C24 N36'
_cell_volume   1660.26621119
_cell_formula_units_Z   4
loop_
 _symmetry_equiv_pos_site_id
 _symmetry_equiv_pos_as_xyz
  1  'x, y, z'
loop_
 _atom_site_type_symbol
 _atom_site_label
 _atom_site_symmetry_multiplicity
 _atom_site_fract_x
 _atom_site_fract_y
 _atom_site_fract_z
 _atom_site_occupancy
  C  C0  1  0.71350000  0.37700000  0.53260000  1
  C  C1  1  0.37690000  0.87700000  0.03260000  1
  C  C2  1  0.99290000  0.71960000  0.00600000  1
  C  C3  1  0.28150000  0.21960000  0.50600000  1
  C  C4  1  0.87780000  0.54700000  0.17760000  1
  C  C5  1  0.39760000  0.04700000  0.67760000  1
  C  C6  1  0.99020000  0.60750000  0.00610000  1
  C  C7  1  0.39620000  0.10750000  0.50610000  1
  C  C8  1  0.93740000  0.52830000  0.08450000  1
  C  C9  1  0.44980000  0.02830000  0.58450000  1
  C  C10  1  0.05290000  0.57780000  0.92360000  1
  C  C11  1  0.44570000  0.07780000  0.42360000  1
  C  C12  1  0.94710000  0.42220000  0.07640000  1
  C  C13  1  0.55430000  0.92220000  0.57640000  1
  C  C14  1  0.06260000  0.47170000  0.91550000  1
  C  C15  1  0.55020000  0.97170000  0.41550000  1
  C  C16  1  0.00980000  0.39250000  0.99390000  1
  C  C17  1  0.60380000  0.89250000  0.49390000  1
  C  C18  1  0.12220000  0.45300000  0.82240000  1
  C  C19  1  0.60240000  0.95300000  0.32240000  1
  C  C20  1  0.00710000  0.28040000  0.99400000  1
  C  C21  1  0.71850000  0.78040000  0.49400000  1
  C  C22  1  0.28650000  0.62300000  0.46740000  1
  C  C23  1  0.62310000  0.12300000  0.96740000  1
  Cu  Cu24  1  0.86630000  0.45569000  0.45885000  1
  Cu  Cu25  1  0.21916000  0.95569000  0.95885000  1
  Cu  Cu26  1  0.65707000  0.79192000  0.12254000  1
  Cu  Cu27  1  0.42847000  0.29192000  0.62254000  1
  Cu  Cu28  1  0.34293000  0.20808000  0.87746000  1
  Cu  Cu29  1  0.57153000  0.70808000  0.37746000  1
  Cu  Cu30  1  0.13370000  0.54431000  0.54115000  1
  Cu  Cu31  1  0.78084000  0.04431000  0.04115000  1
  H  H32  1  0.08980000  0.62990000  0.87190000  1
  H  H33  1  0.40840000  0.12990000  0.37190000  1
  H  H34  1  0.91020000  0.37010000  0.12810000  1
  H  H35  1  0.59160000  0.87010000  0.62810000  1
  N  N36  1  0.61100000  0.34080000  0.56940000  1
  N  N37  1  0.47880000  0.84080000  0.06940000  1
  N  N38  1  0.92672000  0.88996000  0.01720000  1
  N  N39  1  0.16612000  0.38996000  0.51720000  1
  N  N40  1  0.74529000  0.61162000  0.29260000  1
  N  N41  1  0.35049000  0.11162000  0.79260000  1
  N  N42  1  0.07255000  0.86390000  0.97640000  1
  N  N43  1  0.08715000  0.36390000  0.47640000  1
  N  N44  1  0.87246000  0.79918000  0.03730000  1
  N  N45  1  0.29106000  0.29918000  0.53730000  1
  N  N46  1  0.84580000  0.51380000  0.32220000  1
  N  N47  1  0.31820000  0.01380000  0.82220000  1
  N  N48  1  0.76351000  0.63448000  0.20090000  1
  N  N49  1  0.40111000  0.13448000  0.70090000  1
  N  N50  1  0.11910000  0.75730000  0.96750000  1
  N  N51  1  0.15610000  0.25730000  0.46750000  1
  N  N52  1  0.93020000  0.46990000  0.25110000  1
  N  N53  1  0.34880000  0.96990000  0.75110000  1
  N  N54  1  0.06980000  0.53010000  0.74890000  1
  N  N55  1  0.65120000  0.03010000  0.24890000  1
  N  N56  1  0.88090000  0.24270000  0.03250000  1
  N  N57  1  0.84390000  0.74270000  0.53250000  1
  N  N58  1  0.23649000  0.36552000  0.79910000  1
  N  N59  1  0.59889000  0.86552000  0.29910000  1
  N  N60  1  0.15420000  0.48620000  0.67780000  1
  N  N61  1  0.68180000  0.98620000  0.17780000  1
  N  N62  1  0.12754000  0.20082000  0.96270000  1
  N  N63  1  0.70894000  0.70082000  0.46270000  1
  N  N64  1  0.92745000  0.13610000  0.02360000  1
  N  N65  1  0.91285000  0.63610000  0.52360000  1
  N  N66  1  0.25471000  0.38838000  0.70740000  1
  N  N67  1  0.64951000  0.88838000  0.20740000  1
  N  N68  1  0.07328000  0.11004000  0.98280000  1
  N  N69  1  0.83388000  0.61004000  0.48280000  1
  N  N70  1  0.38900000  0.65920000  0.43060000  1
  N  N71  1  0.52120000  0.15920000  0.93060000  1
