# generated using pymatgen
data_EuH15(C9O2)3
_symmetry_space_group_name_H-M   'P 1'
_cell_length_a   10.85110000
_cell_length_b   15.89938880
_cell_length_c   28.88030000
_cell_angle_alpha   90.00000000
_cell_angle_beta   90.00000000
_cell_angle_gamma   90.60159471
_symmetry_Int_Tables_number   1
_chemical_formula_structural   EuH15(C9O2)3
_chemical_formula_sum   'Eu6 H90 C162 O36'
_cell_volume   4982.32387705
_cell_formula_units_Z   6
loop_
 _symmetry_equiv_pos_site_id
 _symmetry_equiv_pos_as_xyz
  1  'x, y, z'
loop_
 _atom_site_type_symbol
 _atom_site_label
 _atom_site_symmetry_multiplicity
 _atom_site_fract_x
 _atom_site_fract_y
 _atom_site_fract_z
 _atom_site_occupancy
  Eu  Eu0  1  0.93337000  0.71436000  0.23008000  1
  Eu  Eu1  1  0.43337000  0.21436000  0.76992000  1
  Eu  Eu2  1  0.25000000  0.75000000  0.29132000  1
  Eu  Eu3  1  0.75000000  0.25000000  0.70868000  1
  Eu  Eu4  1  0.56663000  0.78564000  0.23008000  1
  Eu  Eu5  1  0.06663000  0.28564000  0.76992000  1
  H  H6  1  0.25000000  0.25000000  0.35130000  1
  H  H7  1  0.75000000  0.75000000  0.64870000  1
  H  H8  1  0.93950000  0.92160000  0.10460000  1
  H  H9  1  0.43950000  0.42160000  0.89540000  1
  H  H10  1  0.44430000  0.34810000  0.33800000  1
  H  H11  1  0.94430000  0.84810000  0.66200000  1
  H  H12  1  0.66590000  0.55790000  0.26710000  1
  H  H13  1  0.16590000  0.05790000  0.73290000  1
  H  H14  1  0.15460000  0.03440000  0.31590000  1
  H  H15  1  0.65460000  0.53440000  0.68410000  1
  H  H16  1  0.59420000  0.45740000  0.06170000  1
  H  H17  1  0.09420000  0.95740000  0.93830000  1
  H  H18  1  0.33780000  0.14010000  0.47150000  1
  H  H19  1  0.83780000  0.64010000  0.52850000  1
  H  H20  1  0.91690000  0.69490000  0.38220000  1
  H  H21  1  0.41690000  0.19490000  0.61780000  1
  H  H22  1  0.91700000  0.69470000  0.45930000  1
  H  H23  1  0.41700000  0.19470000  0.54070000  1
  H  H24  1  0.43250000  0.18290000  0.32870000  1
  H  H25  1  0.93250000  0.68290000  0.67130000  1
  H  H26  1  0.28900000  0.01730000  0.41860000  1
  H  H27  1  0.78900000  0.51730000  0.58140000  1
  H  H28  1  0.58690000  0.31110000  0.47490000  1
  H  H29  1  0.08690000  0.81110000  0.52510000  1
  H  H30  1  0.08420000  0.80620000  0.44590000  1
  H  H31  1  0.58420000  0.30620000  0.55410000  1
  H  H32  1  0.10640000  0.82760000  0.13170000  1
  H  H33  1  0.60640000  0.32760000  0.86830000  1
  H  H34  1  0.11360000  0.83360000  0.05240000  1
  H  H35  1  0.61360000  0.33360000  0.94760000  1
  H  H36  1  0.62810000  0.34260000  0.40450000  1
  H  H37  1  0.12810000  0.84260000  0.59550000  1
  H  H38  1  0.81570000  0.50910000  0.19730000  1
  H  H39  1  0.31570000  0.00910000  0.80270000  1
  H  H40  1  0.75400000  0.42990000  0.28530000  1
  H  H41  1  0.25400000  0.92990000  0.71470000  1
  H  H42  1  0.72020000  0.37400000  0.01680000  1
  H  H43  1  0.22020000  0.87400000  0.98320000  1
  H  H44  1  0.49540000  0.07470000  0.28360000  1
  H  H45  1  0.99540000  0.57470000  0.71640000  1
  H  H46  1  0.35390000  0.90830000  0.37110000  1
  H  H47  1  0.85390000  0.40830000  0.62890000  1
  H  H48  1  0.84120000  0.38400000  0.15930000  1
  H  H49  1  0.34120000  0.88400000  0.84070000  1
  H  H50  1  0.75000000  0.25000000  0.13730000  1
  H  H51  1  0.75000000  0.25000000  0.28400000  1
  H  H52  1  0.25000000  0.75000000  0.71600000  1
  H  H53  1  0.25000000  0.75000000  0.86270000  1
  H  H54  1  0.65880000  0.11600000  0.15930000  1
  H  H55  1  0.15880000  0.61600000  0.84070000  1
  H  H56  1  0.14610000  0.59170000  0.37110000  1
  H  H57  1  0.64610000  0.09170000  0.62890000  1
  H  H58  1  0.00460000  0.42530000  0.28360000  1
  H  H59  1  0.50460000  0.92530000  0.71640000  1
  H  H60  1  0.77980000  0.12600000  0.01680000  1
  H  H61  1  0.27980000  0.62600000  0.98320000  1
  H  H62  1  0.74600000  0.07010000  0.28530000  1
  H  H63  1  0.24600000  0.57010000  0.71470000  1
  H  H64  1  0.68430000  0.99090000  0.19730000  1
  H  H65  1  0.18430000  0.49090000  0.80270000  1
  H  H66  1  0.87190000  0.15740000  0.40450000  1
  H  H67  1  0.37190000  0.65740000  0.59550000  1
  H  H68  1  0.38640000  0.66640000  0.05240000  1
  H  H69  1  0.88640000  0.16640000  0.94760000  1
  H  H70  1  0.39360000  0.67240000  0.13170000  1
  H  H71  1  0.89360000  0.17240000  0.86830000  1
  H  H72  1  0.41580000  0.69380000  0.44590000  1
  H  H73  1  0.91580000  0.19380000  0.55410000  1
  H  H74  1  0.91310000  0.18890000  0.47490000  1
  H  H75  1  0.41310000  0.68890000  0.52510000  1
  H  H76  1  0.21100000  0.48270000  0.41860000  1
  H  H77  1  0.71100000  0.98270000  0.58140000  1
  H  H78  1  0.06750000  0.31710000  0.32870000  1
  H  H79  1  0.56750000  0.81710000  0.67130000  1
  H  H80  1  0.58300000  0.80530000  0.45930000  1
  H  H81  1  0.08300000  0.30530000  0.54070000  1
  H  H82  1  0.58310000  0.80510000  0.38220000  1
  H  H83  1  0.08310000  0.30510000  0.61780000  1
  H  H84  1  0.16220000  0.35990000  0.47150000  1
  H  H85  1  0.66220000  0.85990000  0.52850000  1
  H  H86  1  0.90580000  0.04260000  0.06170000  1
  H  H87  1  0.40580000  0.54260000  0.93830000  1
  H  H88  1  0.34540000  0.46560000  0.31590000  1
  H  H89  1  0.84540000  0.96560000  0.68410000  1
  H  H90  1  0.83410000  0.94210000  0.26710000  1
  H  H91  1  0.33410000  0.44210000  0.73290000  1
  H  H92  1  0.05570000  0.15190000  0.33800000  1
  H  H93  1  0.55570000  0.65190000  0.66200000  1
  H  H94  1  0.56050000  0.57840000  0.10460000  1
  H  H95  1  0.06050000  0.07840000  0.89540000  1
  C  C96  1  0.75000000  0.75000000  0.32000000  1
  C  C97  1  0.75000000  0.75000000  0.37090000  1
  C  C98  1  0.25000000  0.25000000  0.38350000  1
  C  C99  1  0.75000000  0.75000000  0.46910000  1
  C  C100  1  0.25000000  0.25000000  0.47890000  1
  C  C101  1  0.75000000  0.75000000  0.52110000  1
  C  C102  1  0.25000000  0.25000000  0.53090000  1
  C  C103  1  0.75000000  0.75000000  0.61650000  1
  C  C104  1  0.25000000  0.25000000  0.62910000  1
  C  C105  1  0.25000000  0.25000000  0.68000000  1
  C  C106  1  0.00710000  0.97670000  0.28750000  1
  C  C107  1  0.50710000  0.47670000  0.71250000  1
  C  C108  1  0.07070000  0.03960000  0.31020000  1
  C  C109  1  0.57070000  0.53960000  0.68980000  1
  C  C110  1  0.67060000  0.63860000  0.18030000  1
  C  C111  1  0.17060000  0.13860000  0.81970000  1
  C  C112  1  0.61890000  0.53990000  0.11440000  1
  C  C113  1  0.11890000  0.03990000  0.88560000  1
  C  C114  1  0.49000000  0.39100000  0.32400000  1
  C  C115  1  0.99000000  0.89100000  0.67600000  1
  C  C116  1  0.61920000  0.51490000  0.28040000  1
  C  C117  1  0.11920000  0.01490000  0.71960000  1
  C  C118  1  0.30070000  0.18270000  0.40660000  1
  C  C119  1  0.30200000  0.18400000  0.45520000  1
  C  C120  1  0.80200000  0.68400000  0.54480000  1
  C  C121  1  0.80070000  0.68270000  0.59340000  1
  C  C122  1  0.68730000  0.55640000  0.15410000  1
  C  C123  1  0.18730000  0.05640000  0.84590000  1
  C  C124  1  0.84950000  0.71710000  0.39770000  1
  C  C125  1  0.34950000  0.21710000  0.60230000  1
  C  C126  1  0.85000000  0.71690000  0.44360000  1
  C  C127  1  0.35000000  0.21690000  0.55640000  1
  C  C128  1  0.06420000  0.89520000  0.27720000  1
  C  C129  1  0.56420000  0.39520000  0.72280000  1
  C  C130  1  0.63630000  0.46660000  0.08930000  1
  C  C131  1  0.13630000  0.96660000  0.91070000  1
  C  C132  1  0.67280000  0.43930000  0.29400000  1
  C  C133  1  0.17280000  0.93930000  0.70600000  1
  C  C134  1  0.61520000  0.37940000  0.31890000  1
  C  C135  1  0.11520000  0.87940000  0.68110000  1
  C  C136  1  0.35440000  0.11240000  0.38000000  1
  C  C137  1  0.85440000  0.61240000  0.62000000  1
  C  C138  1  0.77050000  0.49770000  0.17060000  1
  C  C139  1  0.27050000  0.99770000  0.82940000  1
  C  C140  1  0.41620000  0.12780000  0.33790000  1
  C  C141  1  0.91620000  0.62780000  0.66210000  1
  C  C142  1  0.33090000  0.02990000  0.39130000  1
  C  C143  1  0.83090000  0.52990000  0.60870000  1
  C  C144  1  0.72040000  0.40510000  0.10680000  1
  C  C145  1  0.22040000  0.90510000  0.89320000  1
  C  C146  1  0.78640000  0.42330000  0.14770000  1
  C  C147  1  0.28640000  0.92330000  0.85230000  1
  C  C148  1  0.65150000  0.28610000  0.49080000  1
  C  C149  1  0.15150000  0.78610000  0.50920000  1
  C  C150  1  0.15100000  0.78430000  0.46190000  1
  C  C151  1  0.65100000  0.28430000  0.53810000  1
  C  C152  1  0.16500000  0.79730000  0.11540000  1
  C  C153  1  0.66500000  0.29730000  0.88460000  1
  C  C154  1  0.16790000  0.79900000  0.06820000  1
  C  C155  1  0.66790000  0.29900000  0.93180000  1
  C  C156  1  0.67970000  0.30610000  0.38870000  1
  C  C157  1  0.17970000  0.80610000  0.61130000  1
  C  C158  1  0.68370000  0.30960000  0.34180000  1
  C  C159  1  0.18370000  0.80960000  0.65820000  1
  C  C160  1  0.45210000  0.06310000  0.31070000  1
  C  C161  1  0.95210000  0.56310000  0.68930000  1
  C  C162  1  0.36880000  0.96370000  0.36220000  1
  C  C163  1  0.86880000  0.46370000  0.63780000  1
  C  C164  1  0.73250000  0.32410000  0.03290000  1
  C  C165  1  0.23250000  0.82410000  0.96710000  1
  C  C166  1  0.73310000  0.32430000  0.08170000  1
  C  C167  1  0.23310000  0.82430000  0.91830000  1
  C  C168  1  0.03530000  0.58870000  0.28830000  1
  C  C169  1  0.42580000  0.97920000  0.32210000  1
  C  C170  1  0.92580000  0.47920000  0.67790000  1
  C  C171  1  0.53530000  0.08870000  0.71170000  1
  C  C172  1  0.75000000  0.25000000  0.00870000  1
  C  C173  1  0.25000000  0.75000000  0.04300000  1
  C  C174  1  0.75000000  0.25000000  0.10510000  1
  C  C175  1  0.25000000  0.75000000  0.13810000  1
  C  C176  1  0.25000000  0.75000000  0.19000000  1
  C  C177  1  0.75000000  0.25000000  0.31620000  1
  C  C178  1  0.25000000  0.75000000  0.38660000  1
  C  C179  1  0.75000000  0.25000000  0.41400000  1
  C  C180  1  0.25000000  0.75000000  0.43680000  1
  C  C181  1  0.75000000  0.25000000  0.46590000  1
  C  C182  1  0.25000000  0.75000000  0.53410000  1
  C  C183  1  0.75000000  0.25000000  0.56320000  1
  C  C184  1  0.25000000  0.75000000  0.58600000  1
  C  C185  1  0.75000000  0.25000000  0.61340000  1
  C  C186  1  0.25000000  0.75000000  0.68380000  1
  C  C187  1  0.75000000  0.25000000  0.81000000  1
  C  C188  1  0.75000000  0.25000000  0.86190000  1
  C  C189  1  0.25000000  0.75000000  0.89490000  1
  C  C190  1  0.75000000  0.25000000  0.95700000  1
  C  C191  1  0.25000000  0.75000000  0.99130000  1
  C  C192  1  0.46470000  0.91130000  0.28830000  1
  C  C193  1  0.07420000  0.52080000  0.32210000  1
  C  C194  1  0.57420000  0.02080000  0.67790000  1
  C  C195  1  0.96470000  0.41130000  0.71170000  1
  C  C196  1  0.76690000  0.17570000  0.08170000  1
  C  C197  1  0.26690000  0.67570000  0.91830000  1
  C  C198  1  0.76750000  0.17590000  0.03290000  1
  C  C199  1  0.26750000  0.67590000  0.96710000  1
  C  C200  1  0.13120000  0.53630000  0.36220000  1
  C  C201  1  0.63120000  0.03630000  0.63780000  1
  C  C202  1  0.04790000  0.43690000  0.31070000  1
  C  C203  1  0.54790000  0.93690000  0.68930000  1
  C  C204  1  0.81630000  0.19040000  0.34180000  1
  C  C205  1  0.31630000  0.69040000  0.65820000  1
  C  C206  1  0.82030000  0.19390000  0.38870000  1
  C  C207  1  0.32030000  0.69390000  0.61130000  1
  C  C208  1  0.33210000  0.70100000  0.06820000  1
  C  C209  1  0.83210000  0.20100000  0.93180000  1
  C  C210  1  0.33500000  0.70270000  0.11540000  1
  C  C211  1  0.83500000  0.20270000  0.88460000  1
  C  C212  1  0.34900000  0.71570000  0.46190000  1
  C  C213  1  0.84900000  0.21570000  0.53810000  1
  C  C214  1  0.84850000  0.21390000  0.49080000  1
  C  C215  1  0.34850000  0.71390000  0.50920000  1
  C  C216  1  0.71360000  0.07670000  0.14770000  1
  C  C217  1  0.21360000  0.57670000  0.85230000  1
  C  C218  1  0.77960000  0.09490000  0.10680000  1
  C  C219  1  0.27960000  0.59490000  0.89320000  1
  C  C220  1  0.16910000  0.47010000  0.39130000  1
  C  C221  1  0.66910000  0.97010000  0.60870000  1
  C  C222  1  0.08380000  0.37220000  0.33790000  1
  C  C223  1  0.58380000  0.87220000  0.66210000  1
  C  C224  1  0.72950000  0.00230000  0.17060000  1
  C  C225  1  0.22950000  0.50230000  0.82940000  1
  C  C226  1  0.14560000  0.38760000  0.38000000  1
  C  C227  1  0.64560000  0.88760000  0.62000000  1
  C  C228  1  0.88480000  0.12060000  0.31890000  1
  C  C229  1  0.38480000  0.62060000  0.68110000  1
  C  C230  1  0.82720000  0.06070000  0.29400000  1
  C  C231  1  0.32720000  0.56070000  0.70600000  1
  C  C232  1  0.86370000  0.03340000  0.08930000  1
  C  C233  1  0.36370000  0.53340000  0.91070000  1
  C  C234  1  0.43580000  0.60480000  0.27720000  1
  C  C235  1  0.93580000  0.10480000  0.72280000  1
  C  C236  1  0.65000000  0.78310000  0.44360000  1
  C  C237  1  0.15000000  0.28310000  0.55640000  1
  C  C238  1  0.65050000  0.78290000  0.39770000  1
  C  C239  1  0.15050000  0.28290000  0.60230000  1
  C  C240  1  0.81270000  0.94360000  0.15410000  1
  C  C241  1  0.31270000  0.44360000  0.84590000  1
  C  C242  1  0.19930000  0.31730000  0.40660000  1
  C  C243  1  0.19800000  0.31600000  0.45520000  1
  C  C244  1  0.69800000  0.81600000  0.54480000  1
  C  C245  1  0.69930000  0.81730000  0.59340000  1
  C  C246  1  0.88080000  0.98510000  0.28040000  1
  C  C247  1  0.38080000  0.48510000  0.71960000  1
  C  C248  1  0.01000000  0.10900000  0.32400000  1
  C  C249  1  0.51000000  0.60900000  0.67600000  1
  C  C250  1  0.88110000  0.96010000  0.11440000  1
  C  C251  1  0.38110000  0.46010000  0.88560000  1
  C  C252  1  0.82940000  0.86140000  0.18030000  1
  C  C253  1  0.32940000  0.36140000  0.81970000  1
  C  C254  1  0.42930000  0.46040000  0.31020000  1
  C  C255  1  0.92930000  0.96040000  0.68980000  1
  C  C256  1  0.49290000  0.52330000  0.28750000  1
  C  C257  1  0.99290000  0.02330000  0.71250000  1
  O  O258  1  0.74170000  0.66180000  0.21180000  1
  O  O259  1  0.24170000  0.16180000  0.78820000  1
  O  O260  1  0.92330000  0.81760000  0.16910000  1
  O  O261  1  0.42330000  0.31760000  0.83090000  1
  O  O262  1  0.82780000  0.70510000  0.29890000  1
  O  O263  1  0.32780000  0.20510000  0.70110000  1
  O  O264  1  0.99470000  0.83230000  0.26810000  1
  O  O265  1  0.49470000  0.33230000  0.73190000  1
  O  O266  1  0.17770000  0.88690000  0.27630000  1
  O  O267  1  0.67770000  0.38690000  0.72370000  1
  O  O268  1  0.17010000  0.79420000  0.36470000  1
  O  O269  1  0.67010000  0.29420000  0.63530000  1
  O  O270  1  0.97240000  0.57370000  0.25550000  1
  O  O271  1  0.47240000  0.07370000  0.74450000  1
  O  O272  1  0.15300000  0.73780000  0.21340000  1
  O  O273  1  0.65300000  0.23780000  0.78660000  1
  O  O274  1  0.07870000  0.66100000  0.29530000  1
  O  O275  1  0.57870000  0.16100000  0.70470000  1
  O  O276  1  0.42130000  0.83900000  0.29530000  1
  O  O277  1  0.92130000  0.33900000  0.70470000  1
  O  O278  1  0.34700000  0.76220000  0.21340000  1
  O  O279  1  0.84700000  0.26220000  0.78660000  1
  O  O280  1  0.52760000  0.92630000  0.25550000  1
  O  O281  1  0.02760000  0.42630000  0.74450000  1
  O  O282  1  0.32990000  0.70580000  0.36470000  1
  O  O283  1  0.82990000  0.20580000  0.63530000  1
  O  O284  1  0.32230000  0.61310000  0.27630000  1
  O  O285  1  0.82230000  0.11310000  0.72370000  1
  O  O286  1  0.50530000  0.66770000  0.26810000  1
  O  O287  1  0.00530000  0.16770000  0.73190000  1
  O  O288  1  0.67220000  0.79490000  0.29890000  1
  O  O289  1  0.17220000  0.29490000  0.70110000  1
  O  O290  1  0.57670000  0.68240000  0.16910000  1
  O  O291  1  0.07670000  0.18240000  0.83090000  1
  O  O292  1  0.75830000  0.83820000  0.21180000  1
  O  O293  1  0.25830000  0.33820000  0.78820000  1
