# generated using pymatgen
data_ZnH4(C3O)4
_symmetry_space_group_name_H-M   'P 1'
_cell_length_a   30.30240000
_cell_length_b   30.30240000
_cell_length_c   30.30240000
_cell_angle_alpha   60.00000000
_cell_angle_beta   60.00000000
_cell_angle_gamma   60.00000000
_symmetry_Int_Tables_number   1
_chemical_formula_structural   ZnH4(C3O)4
_chemical_formula_sum   'Zn24 H96 C288 O96'
_cell_volume   19675.06076303
_cell_formula_units_Z   24
loop_
 _symmetry_equiv_pos_site_id
 _symmetry_equiv_pos_as_xyz
  1  'x, y, z'
loop_
 _atom_site_type_symbol
 _atom_site_label
 _atom_site_symmetry_multiplicity
 _atom_site_fract_x
 _atom_site_fract_y
 _atom_site_fract_z
 _atom_site_occupancy
  Zn  Zn0  1  0.14271000  0.50000000  0.85729000  1
  Zn  Zn1  1  0.50000000  0.14271000  0.85729000  1
  Zn  Zn2  1  0.50000000  0.50000000  0.85729000  1
  Zn  Zn3  1  0.24220000  0.50000000  0.75780000  1
  Zn  Zn4  1  0.50000000  0.24220000  0.75780000  1
  Zn  Zn5  1  0.50000000  0.50000000  0.75780000  1
  Zn  Zn6  1  0.14271000  0.50000000  0.50000000  1
  Zn  Zn7  1  0.50000000  0.14271000  0.50000000  1
  Zn  Zn8  1  0.24220000  0.50000000  0.50000000  1
  Zn  Zn9  1  0.50000000  0.24220000  0.50000000  1
  Zn  Zn10  1  0.14271000  0.85729000  0.50000000  1
  Zn  Zn11  1  0.24220000  0.75780000  0.50000000  1
  Zn  Zn12  1  0.75780000  0.24220000  0.50000000  1
  Zn  Zn13  1  0.85729000  0.14271000  0.50000000  1
  Zn  Zn14  1  0.50000000  0.75780000  0.50000000  1
  Zn  Zn15  1  0.75780000  0.50000000  0.50000000  1
  Zn  Zn16  1  0.50000000  0.85729000  0.50000000  1
  Zn  Zn17  1  0.85729000  0.50000000  0.50000000  1
  Zn  Zn18  1  0.50000000  0.50000000  0.24220000  1
  Zn  Zn19  1  0.50000000  0.75780000  0.24220000  1
  Zn  Zn20  1  0.75780000  0.50000000  0.24220000  1
  Zn  Zn21  1  0.50000000  0.50000000  0.14271000  1
  Zn  Zn22  1  0.50000000  0.85729000  0.14271000  1
  Zn  Zn23  1  0.85729000  0.50000000  0.14271000  1
  H  H24  1  0.19500000  0.32860000  0.94040000  1
  H  H25  1  0.32860000  0.19500000  0.94040000  1
  H  H26  1  0.19500000  0.53600000  0.94040000  1
  H  H27  1  0.53600000  0.19500000  0.94040000  1
  H  H28  1  0.32860000  0.53600000  0.94040000  1
  H  H29  1  0.53600000  0.32860000  0.94040000  1
  H  H30  1  0.44740000  0.76300000  0.89480000  1
  H  H31  1  0.76300000  0.44740000  0.89480000  1
  H  H32  1  0.44740000  0.89480000  0.89480000  1
  H  H33  1  0.89480000  0.44740000  0.89480000  1
  H  H34  1  0.76300000  0.89480000  0.89480000  1
  H  H35  1  0.89480000  0.76300000  0.89480000  1
  H  H36  1  0.33480000  0.33480000  0.81520000  1
  H  H37  1  0.33480000  0.51520000  0.81520000  1
  H  H38  1  0.51520000  0.33480000  0.81520000  1
  H  H39  1  0.05960000  0.46400000  0.80500000  1
  H  H40  1  0.46400000  0.05960000  0.80500000  1
  H  H41  1  0.05960000  0.67140000  0.80500000  1
  H  H42  1  0.67140000  0.05960000  0.80500000  1
  H  H43  1  0.46400000  0.67140000  0.80500000  1
  H  H44  1  0.67140000  0.46400000  0.80500000  1
  H  H45  1  0.44740000  0.89480000  0.76300000  1
  H  H46  1  0.89480000  0.44740000  0.76300000  1
  H  H47  1  0.89480000  0.89480000  0.76300000  1
  H  H48  1  0.05960000  0.46400000  0.67140000  1
  H  H49  1  0.46400000  0.05960000  0.67140000  1
  H  H50  1  0.05960000  0.80500000  0.67140000  1
  H  H51  1  0.80500000  0.05960000  0.67140000  1
  H  H52  1  0.46400000  0.80500000  0.67140000  1
  H  H53  1  0.80500000  0.46400000  0.67140000  1
  H  H54  1  0.18480000  0.48480000  0.66520000  1
  H  H55  1  0.48480000  0.18480000  0.66520000  1
  H  H56  1  0.18480000  0.66520000  0.66520000  1
  H  H57  1  0.66520000  0.18480000  0.66520000  1
  H  H58  1  0.48480000  0.66520000  0.66520000  1
  H  H59  1  0.66520000  0.48480000  0.66520000  1
  H  H60  1  0.10520000  0.10520000  0.55260000  1
  H  H61  1  0.10520000  0.23700000  0.55260000  1
  H  H62  1  0.23700000  0.10520000  0.55260000  1
  H  H63  1  0.19500000  0.32860000  0.53600000  1
  H  H64  1  0.32860000  0.19500000  0.53600000  1
  H  H65  1  0.19500000  0.94040000  0.53600000  1
  H  H66  1  0.94040000  0.19500000  0.53600000  1
  H  H67  1  0.32860000  0.94040000  0.53600000  1
  H  H68  1  0.94040000  0.32860000  0.53600000  1
  H  H69  1  0.33480000  0.33480000  0.51520000  1
  H  H70  1  0.33480000  0.81520000  0.51520000  1
  H  H71  1  0.81520000  0.33480000  0.51520000  1
  H  H72  1  0.18480000  0.66520000  0.48480000  1
  H  H73  1  0.66520000  0.18480000  0.48480000  1
  H  H74  1  0.66520000  0.66520000  0.48480000  1
  H  H75  1  0.05960000  0.67140000  0.46400000  1
  H  H76  1  0.67140000  0.05960000  0.46400000  1
  H  H77  1  0.05960000  0.80500000  0.46400000  1
  H  H78  1  0.80500000  0.05960000  0.46400000  1
  H  H79  1  0.67140000  0.80500000  0.46400000  1
  H  H80  1  0.80500000  0.67140000  0.46400000  1
  H  H81  1  0.76300000  0.89480000  0.44740000  1
  H  H82  1  0.89480000  0.76300000  0.44740000  1
  H  H83  1  0.89480000  0.89480000  0.44740000  1
  H  H84  1  0.33480000  0.51520000  0.33480000  1
  H  H85  1  0.51520000  0.33480000  0.33480000  1
  H  H86  1  0.33480000  0.81520000  0.33480000  1
  H  H87  1  0.81520000  0.33480000  0.33480000  1
  H  H88  1  0.51520000  0.81520000  0.33480000  1
  H  H89  1  0.81520000  0.51520000  0.33480000  1
  H  H90  1  0.19500000  0.53600000  0.32860000  1
  H  H91  1  0.53600000  0.19500000  0.32860000  1
  H  H92  1  0.19500000  0.94040000  0.32860000  1
  H  H93  1  0.94040000  0.19500000  0.32860000  1
  H  H94  1  0.53600000  0.94040000  0.32860000  1
  H  H95  1  0.94040000  0.53600000  0.32860000  1
  H  H96  1  0.10520000  0.10520000  0.23700000  1
  H  H97  1  0.10520000  0.55260000  0.23700000  1
  H  H98  1  0.55260000  0.10520000  0.23700000  1
  H  H99  1  0.32860000  0.53600000  0.19500000  1
  H  H100  1  0.53600000  0.32860000  0.19500000  1
  H  H101  1  0.32860000  0.94040000  0.19500000  1
  H  H102  1  0.94040000  0.32860000  0.19500000  1
  H  H103  1  0.53600000  0.94040000  0.19500000  1
  H  H104  1  0.94040000  0.53600000  0.19500000  1
  H  H105  1  0.48480000  0.66520000  0.18480000  1
  H  H106  1  0.66520000  0.48480000  0.18480000  1
  H  H107  1  0.66520000  0.66520000  0.18480000  1
  H  H108  1  0.10520000  0.23700000  0.10520000  1
  H  H109  1  0.23700000  0.10520000  0.10520000  1
  H  H110  1  0.10520000  0.55260000  0.10520000  1
  H  H111  1  0.55260000  0.10520000  0.10520000  1
  H  H112  1  0.23700000  0.55260000  0.10520000  1
  H  H113  1  0.55260000  0.23700000  0.10520000  1
  H  H114  1  0.46400000  0.67140000  0.05960000  1
  H  H115  1  0.67140000  0.46400000  0.05960000  1
  H  H116  1  0.46400000  0.80500000  0.05960000  1
  H  H117  1  0.80500000  0.46400000  0.05960000  1
  H  H118  1  0.67140000  0.80500000  0.05960000  1
  H  H119  1  0.80500000  0.67140000  0.05960000  1
  C  C120  1  0.22790000  0.22790000  0.99950000  1
  C  C121  1  0.22790000  0.54470000  0.99950000  1
  C  C122  1  0.54470000  0.22790000  0.99950000  1
  C  C123  1  0.44590000  0.79770000  0.95870000  1
  C  C124  1  0.79770000  0.44590000  0.95870000  1
  C  C125  1  0.79770000  0.79770000  0.95870000  1
  C  C126  1  0.25846000  0.25846000  0.94918000  1
  C  C127  1  0.25846000  0.53390000  0.94918000  1
  C  C128  1  0.53390000  0.25846000  0.94918000  1
  C  C129  1  0.23232000  0.31188000  0.92416000  1
  C  C130  1  0.31188000  0.23232000  0.92416000  1
  C  C131  1  0.23232000  0.53164000  0.92416000  1
  C  C132  1  0.53164000  0.23232000  0.92416000  1
  C  C133  1  0.31188000  0.53164000  0.92416000  1
  C  C134  1  0.53164000  0.31188000  0.92416000  1
  C  C135  1  0.44700000  0.82460000  0.90380000  1
  C  C136  1  0.82460000  0.44700000  0.90380000  1
  C  C137  1  0.82460000  0.82460000  0.90380000  1
  C  C138  1  0.44720000  0.79920000  0.87680000  1
  C  C139  1  0.79920000  0.44720000  0.87680000  1
  C  C140  1  0.44720000  0.87680000  0.87680000  1
  C  C141  1  0.87680000  0.44720000  0.87680000  1
  C  C142  1  0.79920000  0.87680000  0.87680000  1
  C  C143  1  0.87680000  0.79920000  0.87680000  1
  C  C144  1  0.26167000  0.34065000  0.87481000  1
  C  C145  1  0.34065000  0.26167000  0.87481000  1
  C  C146  1  0.26167000  0.52287000  0.87481000  1
  C  C147  1  0.52287000  0.26167000  0.87481000  1
  C  C148  1  0.34065000  0.52287000  0.87481000  1
  C  C149  1  0.52287000  0.34065000  0.87481000  1
  C  C150  1  0.31536000  0.31536000  0.84962000  1
  C  C151  1  0.31536000  0.51966000  0.84962000  1
  C  C152  1  0.51966000  0.31536000  0.84962000  1
  C  C153  1  0.23509000  0.39947000  0.84923000  1
  C  C154  1  0.39947000  0.23509000  0.84923000  1
  C  C155  1  0.23509000  0.51621000  0.84923000  1
  C  C156  1  0.51621000  0.23509000  0.84923000  1
  C  C157  1  0.39947000  0.51621000  0.84923000  1
  C  C158  1  0.51621000  0.39947000  0.84923000  1
  C  C159  1  0.44700000  0.82460000  0.82460000  1
  C  C160  1  0.82460000  0.44700000  0.82460000  1
  C  C161  1  0.44700000  0.90380000  0.82460000  1
  C  C162  1  0.90380000  0.44700000  0.82460000  1
  C  C163  1  0.82460000  0.90380000  0.82460000  1
  C  C164  1  0.90380000  0.82460000  0.82460000  1
  C  C165  1  0.44720000  0.87680000  0.79920000  1
  C  C166  1  0.87680000  0.44720000  0.79920000  1
  C  C167  1  0.87680000  0.87680000  0.79920000  1
  C  C168  1  0.44590000  0.79770000  0.79770000  1
  C  C169  1  0.79770000  0.44590000  0.79770000  1
  C  C170  1  0.44590000  0.95870000  0.79770000  1
  C  C171  1  0.95870000  0.44590000  0.79770000  1
  C  C172  1  0.79770000  0.95870000  0.79770000  1
  C  C173  1  0.95870000  0.79770000  0.79770000  1
  C  C174  1  0.00050000  0.45530000  0.77210000  1
  C  C175  1  0.45530000  0.00050000  0.77210000  1
  C  C176  1  0.00050000  0.77210000  0.77210000  1
  C  C177  1  0.77210000  0.00050000  0.77210000  1
  C  C178  1  0.45530000  0.77210000  0.77210000  1
  C  C179  1  0.77210000  0.45530000  0.77210000  1
  C  C180  1  0.07584000  0.46836000  0.76768000  1
  C  C181  1  0.46836000  0.07584000  0.76768000  1
  C  C182  1  0.07584000  0.68812000  0.76768000  1
  C  C183  1  0.68812000  0.07584000  0.76768000  1
  C  C184  1  0.46836000  0.68812000  0.76768000  1
  C  C185  1  0.68812000  0.46836000  0.76768000  1
  C  C186  1  0.15077000  0.48379000  0.76491000  1
  C  C187  1  0.48379000  0.15077000  0.76491000  1
  C  C188  1  0.15077000  0.60053000  0.76491000  1
  C  C189  1  0.60053000  0.15077000  0.76491000  1
  C  C190  1  0.48379000  0.60053000  0.76491000  1
  C  C191  1  0.60053000  0.48379000  0.76491000  1
  C  C192  1  0.05082000  0.46610000  0.74154000  1
  C  C193  1  0.46610000  0.05082000  0.74154000  1
  C  C194  1  0.05082000  0.74154000  0.74154000  1
  C  C195  1  0.74154000  0.05082000  0.74154000  1
  C  C196  1  0.46610000  0.74154000  0.74154000  1
  C  C197  1  0.74154000  0.46610000  0.74154000  1
  C  C198  1  0.12519000  0.47713000  0.73833000  1
  C  C199  1  0.47713000  0.12519000  0.73833000  1
  C  C200  1  0.12519000  0.65935000  0.73833000  1
  C  C201  1  0.65935000  0.12519000  0.73833000  1
  C  C202  1  0.47713000  0.65935000  0.73833000  1
  C  C203  1  0.65935000  0.47713000  0.73833000  1
  C  C204  1  0.07584000  0.46836000  0.68812000  1
  C  C205  1  0.46836000  0.07584000  0.68812000  1
  C  C206  1  0.07584000  0.76768000  0.68812000  1
  C  C207  1  0.76768000  0.07584000  0.68812000  1
  C  C208  1  0.46836000  0.76768000  0.68812000  1
  C  C209  1  0.76768000  0.46836000  0.68812000  1
  C  C210  1  0.15038000  0.48034000  0.68464000  1
  C  C211  1  0.48034000  0.15038000  0.68464000  1
  C  C212  1  0.15038000  0.68464000  0.68464000  1
  C  C213  1  0.68464000  0.15038000  0.68464000  1
  C  C214  1  0.48034000  0.68464000  0.68464000  1
  C  C215  1  0.68464000  0.48034000  0.68464000  1
  C  C216  1  0.12519000  0.47713000  0.65935000  1
  C  C217  1  0.47713000  0.12519000  0.65935000  1
  C  C218  1  0.12519000  0.73833000  0.65935000  1
  C  C219  1  0.73833000  0.12519000  0.65935000  1
  C  C220  1  0.47713000  0.73833000  0.65935000  1
  C  C221  1  0.73833000  0.47713000  0.65935000  1
  C  C222  1  0.15077000  0.48379000  0.60053000  1
  C  C223  1  0.48379000  0.15077000  0.60053000  1
  C  C224  1  0.15077000  0.76491000  0.60053000  1
  C  C225  1  0.76491000  0.15077000  0.60053000  1
  C  C226  1  0.48379000  0.76491000  0.60053000  1
  C  C227  1  0.76491000  0.48379000  0.60053000  1
  C  C228  1  0.04130000  0.20230000  0.55410000  1
  C  C229  1  0.20230000  0.04130000  0.55410000  1
  C  C230  1  0.20230000  0.20230000  0.55410000  1
  C  C231  1  0.09620000  0.17540000  0.55300000  1
  C  C232  1  0.17540000  0.09620000  0.55300000  1
  C  C233  1  0.17540000  0.17540000  0.55300000  1
  C  C234  1  0.12320000  0.12320000  0.55280000  1
  C  C235  1  0.12320000  0.20080000  0.55280000  1
  C  C236  1  0.20080000  0.12320000  0.55280000  1
  C  C237  1  0.22790000  0.22790000  0.54470000  1
  C  C238  1  0.22790000  0.99950000  0.54470000  1
  C  C239  1  0.99950000  0.22790000  0.54470000  1
  C  C240  1  0.25846000  0.25846000  0.53390000  1
  C  C241  1  0.25846000  0.94918000  0.53390000  1
  C  C242  1  0.94918000  0.25846000  0.53390000  1
  C  C243  1  0.23232000  0.31188000  0.53164000  1
  C  C244  1  0.31188000  0.23232000  0.53164000  1
  C  C245  1  0.23232000  0.92416000  0.53164000  1
  C  C246  1  0.92416000  0.23232000  0.53164000  1
  C  C247  1  0.31188000  0.92416000  0.53164000  1
  C  C248  1  0.92416000  0.31188000  0.53164000  1
  C  C249  1  0.26167000  0.34065000  0.52287000  1
  C  C250  1  0.34065000  0.26167000  0.52287000  1
  C  C251  1  0.26167000  0.87481000  0.52287000  1
  C  C252  1  0.87481000  0.26167000  0.52287000  1
  C  C253  1  0.34065000  0.87481000  0.52287000  1
  C  C254  1  0.87481000  0.34065000  0.52287000  1
  C  C255  1  0.31536000  0.31536000  0.51966000  1
  C  C256  1  0.31536000  0.84962000  0.51966000  1
  C  C257  1  0.84962000  0.31536000  0.51966000  1
  C  C258  1  0.23509000  0.39947000  0.51621000  1
  C  C259  1  0.39947000  0.23509000  0.51621000  1
  C  C260  1  0.23509000  0.84923000  0.51621000  1
  C  C261  1  0.84923000  0.23509000  0.51621000  1
  C  C262  1  0.39947000  0.84923000  0.51621000  1
  C  C263  1  0.84923000  0.39947000  0.51621000  1
  C  C264  1  0.15077000  0.60053000  0.48379000  1
  C  C265  1  0.60053000  0.15077000  0.48379000  1
  C  C266  1  0.15077000  0.76491000  0.48379000  1
  C  C267  1  0.76491000  0.15077000  0.48379000  1
  C  C268  1  0.60053000  0.76491000  0.48379000  1
  C  C269  1  0.76491000  0.60053000  0.48379000  1
  C  C270  1  0.15038000  0.68464000  0.48034000  1
  C  C271  1  0.68464000  0.15038000  0.48034000  1
  C  C272  1  0.68464000  0.68464000  0.48034000  1
  C  C273  1  0.12519000  0.65935000  0.47713000  1
  C  C274  1  0.65935000  0.12519000  0.47713000  1
  C  C275  1  0.12519000  0.73833000  0.47713000  1
  C  C276  1  0.73833000  0.12519000  0.47713000  1
  C  C277  1  0.65935000  0.73833000  0.47713000  1
  C  C278  1  0.73833000  0.65935000  0.47713000  1
  C  C279  1  0.07584000  0.68812000  0.46836000  1
  C  C280  1  0.68812000  0.07584000  0.46836000  1
  C  C281  1  0.07584000  0.76768000  0.46836000  1
  C  C282  1  0.76768000  0.07584000  0.46836000  1
  C  C283  1  0.68812000  0.76768000  0.46836000  1
  C  C284  1  0.76768000  0.68812000  0.46836000  1
  C  C285  1  0.05082000  0.74154000  0.46610000  1
  C  C286  1  0.74154000  0.05082000  0.46610000  1
  C  C287  1  0.74154000  0.74154000  0.46610000  1
  C  C288  1  0.00050000  0.77210000  0.45530000  1
  C  C289  1  0.77210000  0.00050000  0.45530000  1
  C  C290  1  0.77210000  0.77210000  0.45530000  1
  C  C291  1  0.79920000  0.87680000  0.44720000  1
  C  C292  1  0.87680000  0.79920000  0.44720000  1
  C  C293  1  0.87680000  0.87680000  0.44720000  1
  C  C294  1  0.82460000  0.82460000  0.44700000  1
  C  C295  1  0.82460000  0.90380000  0.44700000  1
  C  C296  1  0.90380000  0.82460000  0.44700000  1
  C  C297  1  0.79770000  0.79770000  0.44590000  1
  C  C298  1  0.79770000  0.95870000  0.44590000  1
  C  C299  1  0.95870000  0.79770000  0.44590000  1
  C  C300  1  0.23509000  0.51621000  0.39947000  1
  C  C301  1  0.51621000  0.23509000  0.39947000  1
  C  C302  1  0.23509000  0.84923000  0.39947000  1
  C  C303  1  0.84923000  0.23509000  0.39947000  1
  C  C304  1  0.51621000  0.84923000  0.39947000  1
  C  C305  1  0.84923000  0.51621000  0.39947000  1
  C  C306  1  0.26167000  0.52287000  0.34065000  1
  C  C307  1  0.52287000  0.26167000  0.34065000  1
  C  C308  1  0.26167000  0.87481000  0.34065000  1
  C  C309  1  0.87481000  0.26167000  0.34065000  1
  C  C310  1  0.52287000  0.87481000  0.34065000  1
  C  C311  1  0.87481000  0.52287000  0.34065000  1
  C  C312  1  0.31536000  0.51966000  0.31536000  1
  C  C313  1  0.51966000  0.31536000  0.31536000  1
  C  C314  1  0.31536000  0.84962000  0.31536000  1
  C  C315  1  0.84962000  0.31536000  0.31536000  1
  C  C316  1  0.51966000  0.84962000  0.31536000  1
  C  C317  1  0.84962000  0.51966000  0.31536000  1
  C  C318  1  0.23232000  0.53164000  0.31188000  1
  C  C319  1  0.53164000  0.23232000  0.31188000  1
  C  C320  1  0.23232000  0.92416000  0.31188000  1
  C  C321  1  0.92416000  0.23232000  0.31188000  1
  C  C322  1  0.53164000  0.92416000  0.31188000  1
  C  C323  1  0.92416000  0.53164000  0.31188000  1
  C  C324  1  0.34065000  0.52287000  0.26167000  1
  C  C325  1  0.52287000  0.34065000  0.26167000  1
  C  C326  1  0.34065000  0.87481000  0.26167000  1
  C  C327  1  0.87481000  0.34065000  0.26167000  1
  C  C328  1  0.52287000  0.87481000  0.26167000  1
  C  C329  1  0.87481000  0.52287000  0.26167000  1
  C  C330  1  0.25846000  0.53390000  0.25846000  1
  C  C331  1  0.53390000  0.25846000  0.25846000  1
  C  C332  1  0.25846000  0.94918000  0.25846000  1
  C  C333  1  0.94918000  0.25846000  0.25846000  1
  C  C334  1  0.53390000  0.94918000  0.25846000  1
  C  C335  1  0.94918000  0.53390000  0.25846000  1
  C  C336  1  0.39947000  0.51621000  0.23509000  1
  C  C337  1  0.51621000  0.39947000  0.23509000  1
  C  C338  1  0.39947000  0.84923000  0.23509000  1
  C  C339  1  0.84923000  0.39947000  0.23509000  1
  C  C340  1  0.51621000  0.84923000  0.23509000  1
  C  C341  1  0.84923000  0.51621000  0.23509000  1
  C  C342  1  0.31188000  0.53164000  0.23232000  1
  C  C343  1  0.53164000  0.31188000  0.23232000  1
  C  C344  1  0.31188000  0.92416000  0.23232000  1
  C  C345  1  0.92416000  0.31188000  0.23232000  1
  C  C346  1  0.53164000  0.92416000  0.23232000  1
  C  C347  1  0.92416000  0.53164000  0.23232000  1
  C  C348  1  0.22790000  0.54470000  0.22790000  1
  C  C349  1  0.54470000  0.22790000  0.22790000  1
  C  C350  1  0.22790000  0.99950000  0.22790000  1
  C  C351  1  0.99950000  0.22790000  0.22790000  1
  C  C352  1  0.54470000  0.99950000  0.22790000  1
  C  C353  1  0.99950000  0.54470000  0.22790000  1
  C  C354  1  0.04130000  0.20230000  0.20230000  1
  C  C355  1  0.20230000  0.04130000  0.20230000  1
  C  C356  1  0.04130000  0.55410000  0.20230000  1
  C  C357  1  0.55410000  0.04130000  0.20230000  1
  C  C358  1  0.20230000  0.55410000  0.20230000  1
  C  C359  1  0.55410000  0.20230000  0.20230000  1
  C  C360  1  0.12320000  0.12320000  0.20080000  1
  C  C361  1  0.12320000  0.55280000  0.20080000  1
  C  C362  1  0.55280000  0.12320000  0.20080000  1
  C  C363  1  0.09620000  0.17540000  0.17540000  1
  C  C364  1  0.17540000  0.09620000  0.17540000  1
  C  C365  1  0.09620000  0.55300000  0.17540000  1
  C  C366  1  0.55300000  0.09620000  0.17540000  1
  C  C367  1  0.17540000  0.55300000  0.17540000  1
  C  C368  1  0.55300000  0.17540000  0.17540000  1
  C  C369  1  0.48379000  0.60053000  0.15077000  1
  C  C370  1  0.60053000  0.48379000  0.15077000  1
  C  C371  1  0.48379000  0.76491000  0.15077000  1
  C  C372  1  0.76491000  0.48379000  0.15077000  1
  C  C373  1  0.60053000  0.76491000  0.15077000  1
  C  C374  1  0.76491000  0.60053000  0.15077000  1
  C  C375  1  0.48034000  0.68464000  0.15038000  1
  C  C376  1  0.68464000  0.48034000  0.15038000  1
  C  C377  1  0.68464000  0.68464000  0.15038000  1
  C  C378  1  0.47713000  0.65935000  0.12519000  1
  C  C379  1  0.65935000  0.47713000  0.12519000  1
  C  C380  1  0.47713000  0.73833000  0.12519000  1
  C  C381  1  0.73833000  0.47713000  0.12519000  1
  C  C382  1  0.65935000  0.73833000  0.12519000  1
  C  C383  1  0.73833000  0.65935000  0.12519000  1
  C  C384  1  0.12320000  0.20080000  0.12320000  1
  C  C385  1  0.20080000  0.12320000  0.12320000  1
  C  C386  1  0.12320000  0.55280000  0.12320000  1
  C  C387  1  0.55280000  0.12320000  0.12320000  1
  C  C388  1  0.20080000  0.55280000  0.12320000  1
  C  C389  1  0.55280000  0.20080000  0.12320000  1
  C  C390  1  0.17540000  0.17540000  0.09620000  1
  C  C391  1  0.17540000  0.55300000  0.09620000  1
  C  C392  1  0.55300000  0.17540000  0.09620000  1
  C  C393  1  0.46836000  0.68812000  0.07584000  1
  C  C394  1  0.68812000  0.46836000  0.07584000  1
  C  C395  1  0.46836000  0.76768000  0.07584000  1
  C  C396  1  0.76768000  0.46836000  0.07584000  1
  C  C397  1  0.68812000  0.76768000  0.07584000  1
  C  C398  1  0.76768000  0.68812000  0.07584000  1
  C  C399  1  0.46610000  0.74154000  0.05082000  1
  C  C400  1  0.74154000  0.46610000  0.05082000  1
  C  C401  1  0.74154000  0.74154000  0.05082000  1
  C  C402  1  0.20230000  0.20230000  0.04130000  1
  C  C403  1  0.20230000  0.55410000  0.04130000  1
  C  C404  1  0.55410000  0.20230000  0.04130000  1
  C  C405  1  0.45530000  0.77210000  0.00050000  1
  C  C406  1  0.77210000  0.45530000  0.00050000  1
  C  C407  1  0.77210000  0.77210000  0.00050000  1
  O  O408  1  0.18875000  0.42187000  0.87655000  1
  O  O409  1  0.42187000  0.18875000  0.87655000  1
  O  O410  1  0.18875000  0.51283000  0.87655000  1
  O  O411  1  0.51283000  0.18875000  0.87655000  1
  O  O412  1  0.42187000  0.51283000  0.87655000  1
  O  O413  1  0.51283000  0.42187000  0.87655000  1
  O  O414  1  0.12345000  0.48717000  0.81125000  1
  O  O415  1  0.48717000  0.12345000  0.81125000  1
  O  O416  1  0.12345000  0.57813000  0.81125000  1
  O  O417  1  0.57813000  0.12345000  0.81125000  1
  O  O418  1  0.48717000  0.57813000  0.81125000  1
  O  O419  1  0.57813000  0.48717000  0.81125000  1
  O  O420  1  0.26229000  0.42165000  0.80287000  1
  O  O421  1  0.42165000  0.26229000  0.80287000  1
  O  O422  1  0.26229000  0.51319000  0.80287000  1
  O  O423  1  0.51319000  0.26229000  0.80287000  1
  O  O424  1  0.42165000  0.51319000  0.80287000  1
  O  O425  1  0.51319000  0.42165000  0.80287000  1
  O  O426  1  0.19713000  0.48681000  0.73771000  1
  O  O427  1  0.48681000  0.19713000  0.73771000  1
  O  O428  1  0.19713000  0.57835000  0.73771000  1
  O  O429  1  0.57835000  0.19713000  0.73771000  1
  O  O430  1  0.48681000  0.57835000  0.73771000  1
  O  O431  1  0.57835000  0.48681000  0.73771000  1
  O  O432  1  0.19713000  0.48681000  0.57835000  1
  O  O433  1  0.48681000  0.19713000  0.57835000  1
  O  O434  1  0.19713000  0.73771000  0.57835000  1
  O  O435  1  0.73771000  0.19713000  0.57835000  1
  O  O436  1  0.48681000  0.73771000  0.57835000  1
  O  O437  1  0.73771000  0.48681000  0.57835000  1
  O  O438  1  0.12345000  0.48717000  0.57813000  1
  O  O439  1  0.48717000  0.12345000  0.57813000  1
  O  O440  1  0.12345000  0.81125000  0.57813000  1
  O  O441  1  0.81125000  0.12345000  0.57813000  1
  O  O442  1  0.48717000  0.81125000  0.57813000  1
  O  O443  1  0.81125000  0.48717000  0.57813000  1
  O  O444  1  0.26229000  0.42165000  0.51319000  1
  O  O445  1  0.42165000  0.26229000  0.51319000  1
  O  O446  1  0.26229000  0.80287000  0.51319000  1
  O  O447  1  0.80287000  0.26229000  0.51319000  1
  O  O448  1  0.42165000  0.80287000  0.51319000  1
  O  O449  1  0.80287000  0.42165000  0.51319000  1
  O  O450  1  0.18875000  0.42187000  0.51283000  1
  O  O451  1  0.42187000  0.18875000  0.51283000  1
  O  O452  1  0.18875000  0.87655000  0.51283000  1
  O  O453  1  0.87655000  0.18875000  0.51283000  1
  O  O454  1  0.42187000  0.87655000  0.51283000  1
  O  O455  1  0.87655000  0.42187000  0.51283000  1
  O  O456  1  0.12345000  0.57813000  0.48717000  1
  O  O457  1  0.57813000  0.12345000  0.48717000  1
  O  O458  1  0.12345000  0.81125000  0.48717000  1
  O  O459  1  0.81125000  0.12345000  0.48717000  1
  O  O460  1  0.57813000  0.81125000  0.48717000  1
  O  O461  1  0.81125000  0.57813000  0.48717000  1
  O  O462  1  0.19713000  0.57835000  0.48681000  1
  O  O463  1  0.57835000  0.19713000  0.48681000  1
  O  O464  1  0.19713000  0.73771000  0.48681000  1
  O  O465  1  0.73771000  0.19713000  0.48681000  1
  O  O466  1  0.57835000  0.73771000  0.48681000  1
  O  O467  1  0.73771000  0.57835000  0.48681000  1
  O  O468  1  0.18875000  0.51283000  0.42187000  1
  O  O469  1  0.51283000  0.18875000  0.42187000  1
  O  O470  1  0.18875000  0.87655000  0.42187000  1
  O  O471  1  0.87655000  0.18875000  0.42187000  1
  O  O472  1  0.51283000  0.87655000  0.42187000  1
  O  O473  1  0.87655000  0.51283000  0.42187000  1
  O  O474  1  0.26229000  0.51319000  0.42165000  1
  O  O475  1  0.51319000  0.26229000  0.42165000  1
  O  O476  1  0.26229000  0.80287000  0.42165000  1
  O  O477  1  0.80287000  0.26229000  0.42165000  1
  O  O478  1  0.51319000  0.80287000  0.42165000  1
  O  O479  1  0.80287000  0.51319000  0.42165000  1
  O  O480  1  0.42165000  0.51319000  0.26229000  1
  O  O481  1  0.51319000  0.42165000  0.26229000  1
  O  O482  1  0.42165000  0.80287000  0.26229000  1
  O  O483  1  0.80287000  0.42165000  0.26229000  1
  O  O484  1  0.51319000  0.80287000  0.26229000  1
  O  O485  1  0.80287000  0.51319000  0.26229000  1
  O  O486  1  0.48681000  0.57835000  0.19713000  1
  O  O487  1  0.57835000  0.48681000  0.19713000  1
  O  O488  1  0.48681000  0.73771000  0.19713000  1
  O  O489  1  0.73771000  0.48681000  0.19713000  1
  O  O490  1  0.57835000  0.73771000  0.19713000  1
  O  O491  1  0.73771000  0.57835000  0.19713000  1
  O  O492  1  0.42187000  0.51283000  0.18875000  1
  O  O493  1  0.51283000  0.42187000  0.18875000  1
  O  O494  1  0.42187000  0.87655000  0.18875000  1
  O  O495  1  0.87655000  0.42187000  0.18875000  1
  O  O496  1  0.51283000  0.87655000  0.18875000  1
  O  O497  1  0.87655000  0.51283000  0.18875000  1
  O  O498  1  0.48717000  0.57813000  0.12345000  1
  O  O499  1  0.57813000  0.48717000  0.12345000  1
  O  O500  1  0.48717000  0.81125000  0.12345000  1
  O  O501  1  0.81125000  0.48717000  0.12345000  1
  O  O502  1  0.57813000  0.81125000  0.12345000  1
  O  O503  1  0.81125000  0.57813000  0.12345000  1
