# generated using pymatgen
data_Cu7H11C16(ClO11)2
_symmetry_space_group_name_H-M   'P 1'
_cell_length_a   10.04520000
_cell_length_b   10.22940000
_cell_length_c   14.16010000
_cell_angle_alpha   92.25800000
_cell_angle_beta   90.00000000
_cell_angle_gamma   90.00000000
_symmetry_Int_Tables_number   1
_chemical_formula_structural   Cu7H11C16(ClO11)2
_chemical_formula_sum   'Cu14 H22 C32 Cl4 O44'
_cell_volume   1453.91068524
_cell_formula_units_Z   2
loop_
 _symmetry_equiv_pos_site_id
 _symmetry_equiv_pos_as_xyz
  1  'x, y, z'
loop_
 _atom_site_type_symbol
 _atom_site_label
 _atom_site_symmetry_multiplicity
 _atom_site_fract_x
 _atom_site_fract_y
 _atom_site_fract_z
 _atom_site_occupancy
  Cu  Cu0  1  0.87659000  0.79936000  0.22966000  1
  Cu  Cu1  1  0.76772000  0.06765000  0.21149000  1
  Cu  Cu2  1  0.75117000  0.07438000  0.71465000  1
  Cu  Cu3  1  0.74266000  0.56207000  0.71256000  1
  Cu  Cu4  1  0.73614000  0.55891000  0.12383000  1
  Cu  Cu5  1  0.71889000  0.59231000  0.33564000  1
  Cu  Cu6  1  0.59336000  0.34395000  0.21828000  1
  Cu  Cu7  1  0.40664000  0.84395000  0.21828000  1
  Cu  Cu8  1  0.28111000  0.09231000  0.33564000  1
  Cu  Cu9  1  0.26386000  0.05891000  0.12383000  1
  Cu  Cu10  1  0.25734000  0.06207000  0.71256000  1
  Cu  Cu11  1  0.24883000  0.57438000  0.71465000  1
  Cu  Cu12  1  0.23228000  0.56765000  0.21149000  1
  Cu  Cu13  1  0.12341000  0.29936000  0.22966000  1
  H  H14  1  0.99470000  0.29290000  0.54960000  1
  H  H15  1  0.97700000  0.00500000  0.16100000  1
  H  H16  1  0.94060000  0.03090000  0.49290000  1
  H  H17  1  0.92900000  0.56800000  0.23200000  1
  H  H18  1  0.87540000  0.90690000  0.90690000  1
  H  H19  1  0.82500000  0.39110000  0.47890000  1
  H  H20  1  0.68320000  0.74440000  0.94680000  1
  H  H21  1  0.63520000  0.22280000  0.50740000  1
  H  H22  1  0.60500000  0.13100000  0.12900000  1
  H  H23  1  0.57040000  0.10980000  0.93330000  1
  H  H24  1  0.50280000  0.85160000  0.89390000  1
  H  H25  1  0.49720000  0.35160000  0.89390000  1
  H  H26  1  0.42960000  0.60980000  0.93330000  1
  H  H27  1  0.39500000  0.63100000  0.12900000  1
  H  H28  1  0.36480000  0.72280000  0.50740000  1
  H  H29  1  0.31680000  0.24440000  0.94680000  1
  H  H30  1  0.17500000  0.89110000  0.47890000  1
  H  H31  1  0.12460000  0.40690000  0.90690000  1
  H  H32  1  0.07100000  0.06800000  0.23200000  1
  H  H33  1  0.05940000  0.53090000  0.49290000  1
  H  H34  1  0.02300000  0.50500000  0.16100000  1
  H  H35  1  0.00530000  0.79290000  0.54960000  1
  C  C36  1  0.99830000  0.08090000  0.63080000  1
  C  C37  1  0.95590000  0.23510000  0.49810000  1
  C  C38  1  0.94270000  0.72160000  0.41840000  1
  C  C39  1  0.91920000  0.10290000  0.54030000  1
  C  C40  1  0.82350000  0.29380000  0.46840000  1
  C  C41  1  0.78160000  0.90250000  0.88350000  1
  C  C42  1  0.78130000  0.25770000  0.36760000  1
  C  C43  1  0.77430000  0.82250000  0.78950000  1
  C  C44  1  0.74200000  0.87560000  0.05700000  1
  C  C45  1  0.72500000  0.23190000  0.53750000  1
  C  C46  1  0.71560000  0.31660000  0.62800000  1
  C  C47  1  0.69010000  0.84130000  0.95790000  1
  C  C48  1  0.59000000  0.03340000  0.88930000  1
  C  C49  1  0.55440000  0.90940000  0.93930000  1
  C  C50  1  0.53000000  0.43330000  0.02640000  1
  C  C51  1  0.50850000  0.04920000  0.79920000  1
  C  C52  1  0.49150000  0.54920000  0.79920000  1
  C  C53  1  0.47000000  0.93330000  0.02640000  1
  C  C54  1  0.44560000  0.40940000  0.93930000  1
  C  C55  1  0.41000000  0.53340000  0.88930000  1
  C  C56  1  0.30990000  0.34130000  0.95790000  1
  C  C57  1  0.28440000  0.81660000  0.62800000  1
  C  C58  1  0.27500000  0.73190000  0.53750000  1
  C  C59  1  0.25800000  0.37560000  0.05700000  1
  C  C60  1  0.22570000  0.32250000  0.78950000  1
  C  C61  1  0.21870000  0.75770000  0.36760000  1
  C  C62  1  0.21840000  0.40250000  0.88350000  1
  C  C63  1  0.17650000  0.79380000  0.46840000  1
  C  C64  1  0.08080000  0.60290000  0.54030000  1
  C  C65  1  0.05730000  0.22160000  0.41840000  1
  C  C66  1  0.04410000  0.73510000  0.49810000  1
  C  C67  1  0.00170000  0.58090000  0.63080000  1
  Cl  Cl68  1  0.89243000  0.47000000  0.03218000  1
  Cl  Cl69  1  0.62662000  0.84853000  0.30909000  1
  Cl  Cl70  1  0.37338000  0.34853000  0.30909000  1
  Cl  Cl71  1  0.10757000  0.97000000  0.03218000  1
  O  O72  1  0.95410000  0.80400000  0.35530000  1
  O  O73  1  0.94030000  0.06020000  0.70680000  1
  O  O74  1  0.93200000  0.97620000  0.21610000  1
  O  O75  1  0.87840000  0.58170000  0.61990000  1
  O  O76  1  0.85430000  0.63620000  0.42550000  1
  O  O77  1  0.84560000  0.61320000  0.23120000  1
  O  O78  1  0.80290000  0.14410000  0.33670000  1
  O  O79  1  0.79950000  0.70250000  0.79640000  1
  O  O80  1  0.78900000  0.78460000  0.10390000  1
  O  O81  1  0.77790000  0.10520000  0.55590000  1
  O  O82  1  0.75640000  0.27210000  0.70440000  1
  O  O83  1  0.74210000  0.87720000  0.71540000  1
  O  O84  1  0.73180000  0.99300000  0.08400000  1
  O  O85  1  0.73070000  0.03150000  0.87110000  1
  O  O86  1  0.72120000  0.34670000  0.32520000  1
  O  O87  1  0.67380000  0.43130000  0.61950000  1
  O  O88  1  0.61400000  0.52740000  0.80870000  1
  O  O89  1  0.60880000  0.53240000  0.23130000  1
  O  O90  1  0.60620000  0.16080000  0.19400000  1
  O  O91  1  0.59540000  0.53820000  0.03310000  1
  O  O92  1  0.56100000  0.08750000  0.72510000  1
  O  O93  1  0.52930000  0.34340000  0.08500000  1
  O  O94  1  0.47070000  0.84340000  0.08500000  1
  O  O95  1  0.43900000  0.58750000  0.72510000  1
  O  O96  1  0.40460000  0.03820000  0.03310000  1
  O  O97  1  0.39380000  0.66080000  0.19400000  1
  O  O98  1  0.39120000  0.03240000  0.23130000  1
  O  O99  1  0.38600000  0.02740000  0.80870000  1
  O  O100  1  0.32620000  0.93130000  0.61950000  1
  O  O101  1  0.27880000  0.84670000  0.32520000  1
  O  O102  1  0.26930000  0.53150000  0.87110000  1
  O  O103  1  0.26820000  0.49300000  0.08400000  1
  O  O104  1  0.25790000  0.37720000  0.71540000  1
  O  O105  1  0.24360000  0.77210000  0.70440000  1
  O  O106  1  0.22210000  0.60520000  0.55590000  1
  O  O107  1  0.21100000  0.28460000  0.10390000  1
  O  O108  1  0.20050000  0.20250000  0.79640000  1
  O  O109  1  0.19710000  0.64410000  0.33670000  1
  O  O110  1  0.15440000  0.11320000  0.23120000  1
  O  O111  1  0.14570000  0.13620000  0.42550000  1
  O  O112  1  0.12160000  0.08170000  0.61990000  1
  O  O113  1  0.06800000  0.47620000  0.21610000  1
  O  O114  1  0.05970000  0.56020000  0.70680000  1
  O  O115  1  0.04590000  0.30400000  0.35530000  1
