# generated using pymatgen
data_Ni2H76C53(NO)12
_symmetry_space_group_name_H-M   'P 1'
_cell_length_a   8.84680000
_cell_length_b   19.27736073
_cell_length_c   23.96377620
_cell_angle_alpha   86.11489650
_cell_angle_beta   79.36294923
_cell_angle_gamma   76.73466689
_symmetry_Int_Tables_number   1
_chemical_formula_structural   Ni2H76C53(NO)12
_chemical_formula_sum   'Ni4 H152 C106 N24 O24'
_cell_volume   3908.07498928
_cell_formula_units_Z   2
loop_
 _symmetry_equiv_pos_site_id
 _symmetry_equiv_pos_as_xyz
  1  'x, y, z'
loop_
 _atom_site_type_symbol
 _atom_site_label
 _atom_site_symmetry_multiplicity
 _atom_site_fract_x
 _atom_site_fract_y
 _atom_site_fract_z
 _atom_site_occupancy
  C  C0  1  0.62080000  0.25000000  0.75000000  1
  C  C1  1  0.37920000  0.75000000  0.25000000  1
  C  C2  1  0.92623000  0.15232000  0.82862000  1
  C  C3  1  0.09283000  0.65232000  0.32862000  1
  C  C4  1  0.92492000  0.87498000  0.09538000  1
  C  C5  1  0.10472000  0.37498000  0.59538000  1
  C  C6  1  0.01171000  0.32958000  0.62040000  1
  C  C7  1  0.03831000  0.82958000  0.12040000  1
  C  C8  1  0.74938000  0.18415000  0.76029000  1
  C  C9  1  0.30618000  0.68415000  0.26029000  1
  C  C10  1  0.62343000  0.37234000  0.57020000  1
  C  C11  1  0.43403000  0.87234000  0.07020000  1
  C  C12  1  0.90253000  0.56056000  0.38018000  1
  C  C13  1  0.15673000  0.06056000  0.88018000  1
  C  C14  1  0.55276000  0.24087000  0.69741000  1
  C  C15  1  0.50896000  0.74087000  0.19741000  1
  C  C16  1  0.80064000  0.51072000  0.40880000  1
  C  C17  1  0.27984000  0.01072000  0.90880000  1
  C  C18  1  0.70254000  0.00604000  0.89348000  1
  C  C19  1  0.39794000  0.50604000  0.39348000  1
  C  C20  1  0.00594000  0.08856000  0.80316000  1
  C  C21  1  0.10234000  0.58856000  0.30316000  1
  C  C22  1  0.00557000  0.54353000  0.32933000  1
  C  C23  1  0.12157000  0.04353000  0.82933000  1
  C  C24  1  0.74199000  0.92880000  0.91422000  1
  C  C25  1  0.41499000  0.42880000  0.41422000  1
  C  C26  1  0.76619000  0.66921000  0.16621000  1
  C  C27  1  0.39839000  0.16921000  0.66621000  1
  C  C28  1  0.63147000  0.84266000  0.98420000  1
  C  C29  1  0.54167000  0.34266000  0.48420000  1
  C  C30  1  0.78054000  0.70797000  0.11455000  1
  C  C31  1  0.39694000  0.20797000  0.61455000  1
  C  C32  1  0.82080000  0.31330000  0.49330000  1
  C  C33  1  0.37260000  0.81330000  0.99330000  1
  C  C34  1  0.88688000  0.61255000  0.17649000  1
  C  C35  1  0.32408000  0.11255000  0.67649000  1
  C  C36  1  0.91716000  0.68884000  0.07464000  1
  C  C37  1  0.31936000  0.18884000  0.57464000  1
  C  C38  1  0.02051000  0.59363000  0.13595000  1
  C  C39  1  0.24991000  0.09363000  0.63595000  1
  C  C40  1  0.03887000  0.63176000  0.08410000  1
  C  C41  1  0.24527000  0.13176000  0.58410000  1
  C  C42  1  0.76629000  0.05545000  0.60197000  1
  C  C43  1  0.57629000  0.55545000  0.10197000  1
  C  C44  1  0.16284000  0.11220000  0.53972000  1
  C  C45  1  0.18524000  0.61220000  0.03972000  1
  C  C46  1  0.75474000  0.12612000  0.51080000  1
  C  C47  1  0.60834000  0.62612000  0.01080000  1
  C  C48  1  0.75089000  0.44362000  0.12500000  1
  C  C49  1  0.68049000  0.94362000  0.62500000  1
  C  C50  1  0.95840000  0.94526000  0.62054000  1
  C  C51  1  0.47580000  0.44526000  0.12054000  1
  C  C52  1  0.81145000  0.11670000  0.44700000  1
  C  C53  1  0.62485000  0.61670000  0.94700000  1
  C  C54  1  0.18855000  0.88330000  0.55300000  1
  C  C55  1  0.37515000  0.38330000  0.05300000  1
  C  C56  1  0.04160000  0.05474000  0.37946000  1
  C  C57  1  0.52420000  0.55474000  0.87946000  1
  C  C58  1  0.24911000  0.55638000  0.87500000  1
  C  C59  1  0.31951000  0.05638000  0.37500000  1
  C  C60  1  0.24526000  0.87388000  0.48920000  1
  C  C61  1  0.39166000  0.37388000  0.98920000  1
  C  C62  1  0.83716000  0.88780000  0.46028000  1
  C  C63  1  0.81476000  0.38780000  0.96028000  1
  C  C64  1  0.23371000  0.94455000  0.39803000  1
  C  C65  1  0.42371000  0.44455000  0.89803000  1
  C  C66  1  0.96113000  0.36824000  0.91590000  1
  C  C67  1  0.75473000  0.86824000  0.41590000  1
  C  C68  1  0.97949000  0.40637000  0.86405000  1
  C  C69  1  0.75009000  0.90637000  0.36405000  1
  C  C70  1  0.08284000  0.31116000  0.92536000  1
  C  C71  1  0.68064000  0.81116000  0.42536000  1
  C  C72  1  0.11312000  0.38745000  0.82351000  1
  C  C73  1  0.67592000  0.88745000  0.32351000  1
  C  C74  1  0.17920000  0.68670000  0.50670000  1
  C  C75  1  0.62740000  0.18670000  0.00670000  1
  C  C76  1  0.21946000  0.29203000  0.88545000  1
  C  C77  1  0.60306000  0.79203000  0.38545000  1
  C  C78  1  0.36853000  0.15734000  0.01580000  1
  C  C79  1  0.45833000  0.65734000  0.51580000  1
  C  C80  1  0.23381000  0.33079000  0.83379000  1
  C  C81  1  0.60161000  0.83079000  0.33379000  1
  C  C82  1  0.25801000  0.07120000  0.08578000  1
  C  C83  1  0.58501000  0.57120000  0.58578000  1
  C  C84  1  0.99443000  0.45647000  0.67067000  1
  C  C85  1  0.87843000  0.95647000  0.17067000  1
  C  C86  1  0.99406000  0.91144000  0.19684000  1
  C  C87  1  0.89766000  0.41144000  0.69684000  1
  C  C88  1  0.29746000  0.99396000  0.10652000  1
  C  C89  1  0.60206000  0.49396000  0.60652000  1
  C  C90  1  0.19936000  0.48928000  0.59120000  1
  C  C91  1  0.72016000  0.98928000  0.09120000  1
  C  C92  1  0.44724000  0.75913000  0.30259000  1
  C  C93  1  0.49104000  0.25913000  0.80259000  1
  C  C94  1  0.09747000  0.43944000  0.61982000  1
  C  C95  1  0.84327000  0.93944000  0.11982000  1
  C  C96  1  0.37657000  0.62766000  0.42980000  1
  C  C97  1  0.56597000  0.12766000  0.92980000  1
  C  C98  1  0.25062000  0.81585000  0.23971000  1
  C  C99  1  0.69382000  0.31585000  0.73971000  1
  C  C100  1  0.98829000  0.67042000  0.37960000  1
  C  C101  1  0.96169000  0.17042000  0.87960000  1
  C  C102  1  0.07508000  0.12502000  0.90462000  1
  C  C103  1  0.89528000  0.62502000  0.40462000  1
  C  C104  1  0.07377000  0.84768000  0.17138000  1
  C  C105  1  0.90717000  0.34768000  0.67138000  1
  H  H106  1  0.75030000  0.44600000  0.53920000  1
  H  H107  1  0.26450000  0.94600000  0.03920000  1
  H  H108  1  0.54780000  0.78420000  0.18940000  1
  H  H109  1  0.47860000  0.28420000  0.68940000  1
  H  H110  1  0.52030000  0.87330000  0.08970000  1
  H  H111  1  0.51670000  0.37330000  0.58970000  1
  H  H112  1  0.69440000  0.35090000  0.59610000  1
  H  H113  1  0.35860000  0.85090000  0.09610000  1
  H  H114  1  0.90230000  0.86250000  0.06150000  1
  H  H115  1  0.17370000  0.36250000  0.56150000  1
  H  H116  1  0.70570000  0.14200000  0.76780000  1
  H  H117  1  0.38450000  0.64200000  0.26780000  1
  H  H118  1  0.83340000  0.17610000  0.72750000  1
  H  H119  1  0.26300000  0.67610000  0.22750000  1
  H  H120  1  0.63680000  0.23120000  0.66480000  1
  H  H121  1  0.46720000  0.73120000  0.16480000  1
  H  H122  1  0.01810000  0.28660000  0.60360000  1
  H  H123  1  0.09170000  0.78660000  0.10360000  1
  H  H124  1  0.79560000  0.01880000  0.87100000  1
  H  H125  1  0.31460000  0.51880000  0.37100000  1
  H  H126  1  0.62210000  0.01260000  0.86980000  1
  H  H127  1  0.49550000  0.51260000  0.36980000  1
  H  H128  1  0.82800000  0.92160000  0.93540000  1
  H  H129  1  0.31500000  0.42160000  0.43540000  1
  H  H130  1  0.69990000  0.74590000  0.10710000  1
  H  H131  1  0.44710000  0.24590000  0.60710000  1
  H  H132  1  0.71170000  0.84360000  0.00660000  1
  H  H133  1  0.43810000  0.34360000  0.50660000  1
  H  H134  1  0.98280000  0.07600000  0.76940000  1
  H  H135  1  0.17180000  0.57600000  0.26940000  1
  H  H136  1  0.84850000  0.35700000  0.47820000  1
  H  H137  1  0.31630000  0.85700000  0.97820000  1
  H  H138  1  0.63970000  0.40780000  0.42640000  1
  H  H139  1  0.52610000  0.90780000  0.92640000  1
  H  H140  1  0.01020000  0.50090000  0.31230000  1
  H  H141  1  0.17660000  0.00090000  0.81230000  1
  H  H142  1  0.88710000  0.29210000  0.52030000  1
  H  H143  1  0.30050000  0.79210000  0.02030000  1
  H  H144  1  0.87770000  0.58710000  0.21090000  1
  H  H145  1  0.32430000  0.08710000  0.71090000  1
  H  H146  1  0.77490000  0.89760000  0.88200000  1
  H  H147  1  0.44550000  0.39760000  0.38200000  1
  H  H148  1  0.67300000  0.80400000  0.95780000  1
  H  H149  1  0.56520000  0.30400000  0.45780000  1
  H  H150  1  0.92760000  0.71500000  0.04060000  1
  H  H151  1  0.31680000  0.21500000  0.54060000  1
  H  H152  1  0.83520000  0.28100000  0.46300000  1
  H  H153  1  0.42080000  0.78100000  0.96300000  1
  H  H154  1  0.66060000  0.08090000  0.61770000  1
  H  H155  1  0.64080000  0.58090000  0.11770000  1
  H  H156  1  0.09980000  0.55490000  0.14310000  1
  H  H157  1  0.20220000  0.05490000  0.64310000  1
  H  H158  1  0.83960000  0.08200000  0.61060000  1
  H  H159  1  0.46780000  0.58200000  0.11060000  1
  H  H160  1  0.81320000  0.15570000  0.52530000  1
  H  H161  1  0.50580000  0.65570000  0.02530000  1
  H  H162  1  0.68890000  0.64910000  0.01830000  1
  H  H163  1  0.64370000  0.14910000  0.51830000  1
  H  H164  1  0.81410000  0.47060000  0.13900000  1
  H  H165  1  0.57630000  0.97060000  0.63900000  1
  H  H166  1  0.02500000  0.97470000  0.63010000  1
  H  H167  1  0.37020000  0.47470000  0.13010000  1
  H  H168  1  0.79870000  0.16280000  0.42740000  1
  H  H169  1  0.61110000  0.66280000  0.92740000  1
  H  H170  1  0.73780000  0.52920000  0.03120000  1
  H  H171  1  0.70180000  0.02920000  0.53120000  1
  H  H172  1  0.04070000  0.11380000  0.44540000  1
  H  H173  1  0.40010000  0.61380000  0.94540000  1
  H  H174  1  0.96590000  0.90420000  0.64640000  1
  H  H175  1  0.48350000  0.40420000  0.14640000  1
  H  H176  1  0.75140000  0.40020000  0.14720000  1
  H  H177  1  0.70120000  0.90020000  0.64720000  1
  H  H178  1  0.75040000  0.08860000  0.43220000  1
  H  H179  1  0.72880000  0.58860000  0.93220000  1
  H  H180  1  0.79340000  0.43240000  0.08600000  1
  H  H181  1  0.68820000  0.93240000  0.58600000  1
  H  H182  1  0.20660000  0.56760000  0.91400000  1
  H  H183  1  0.31180000  0.06760000  0.41400000  1
  H  H184  1  0.24960000  0.91140000  0.56780000  1
  H  H185  1  0.27120000  0.41140000  0.06780000  1
  H  H186  1  0.24860000  0.59980000  0.85280000  1
  H  H187  1  0.29880000  0.09980000  0.35280000  1
  H  H188  1  0.03410000  0.09580000  0.35360000  1
  H  H189  1  0.51650000  0.59580000  0.85360000  1
  H  H190  1  0.95930000  0.88620000  0.55460000  1
  H  H191  1  0.59990000  0.38620000  0.05460000  1
  H  H192  1  0.26220000  0.47080000  0.96880000  1
  H  H193  1  0.29820000  0.97080000  0.46880000  1
  H  H194  1  0.20130000  0.83720000  0.57260000  1
  H  H195  1  0.38890000  0.33720000  0.07260000  1
  H  H196  1  0.97500000  0.02530000  0.36990000  1
  H  H197  1  0.62980000  0.52530000  0.86990000  1
  H  H198  1  0.18590000  0.52940000  0.86100000  1
  H  H199  1  0.42370000  0.02940000  0.36100000  1
  H  H200  1  0.31110000  0.35090000  0.98170000  1
  H  H201  1  0.35630000  0.85090000  0.48170000  1
  H  H202  1  0.18680000  0.84430000  0.47470000  1
  H  H203  1  0.49420000  0.34430000  0.97470000  1
  H  H204  1  0.16040000  0.91800000  0.38940000  1
  H  H205  1  0.53220000  0.41800000  0.88940000  1
  H  H206  1  0.90020000  0.44510000  0.85690000  1
  H  H207  1  0.79780000  0.94510000  0.35690000  1
  H  H208  1  0.33940000  0.91910000  0.38230000  1
  H  H209  1  0.35920000  0.41910000  0.88230000  1
  H  H210  1  0.16480000  0.71900000  0.53700000  1
  H  H211  1  0.57920000  0.21900000  0.03700000  1
  H  H212  1  0.07240000  0.28500000  0.95940000  1
  H  H213  1  0.68320000  0.78500000  0.45940000  1
  H  H214  1  0.32700000  0.19600000  0.04220000  1
  H  H215  1  0.43480000  0.69600000  0.54220000  1
  H  H216  1  0.22510000  0.10240000  0.11800000  1
  H  H217  1  0.55450000  0.60240000  0.61800000  1
  H  H218  1  0.12230000  0.41290000  0.78910000  1
  H  H219  1  0.67570000  0.91290000  0.28910000  1
  H  H220  1  0.11290000  0.70790000  0.47970000  1
  H  H221  1  0.69950000  0.20790000  0.97970000  1
  H  H222  1  0.98980000  0.49910000  0.68770000  1
  H  H223  1  0.82340000  0.99910000  0.18770000  1
  H  H224  1  0.36030000  0.59220000  0.57360000  1
  H  H225  1  0.47390000  0.09220000  0.07360000  1
  H  H226  1  0.15150000  0.64300000  0.52180000  1
  H  H227  1  0.68370000  0.14300000  0.02180000  1
  H  H228  1  0.01720000  0.92400000  0.23060000  1
  H  H229  1  0.82820000  0.42400000  0.73060000  1
  H  H230  1  0.28830000  0.15640000  0.99340000  1
  H  H231  1  0.56190000  0.65640000  0.49340000  1
  H  H232  1  0.30010000  0.25410000  0.89290000  1
  H  H233  1  0.55290000  0.75410000  0.39290000  1
  H  H234  1  0.17200000  0.07840000  0.06460000  1
  H  H235  1  0.68500000  0.57840000  0.56460000  1
  H  H236  1  0.37790000  0.98740000  0.13020000  1
  H  H237  1  0.50450000  0.48740000  0.63020000  1
  H  H238  1  0.20440000  0.98120000  0.12900000  1
  H  H239  1  0.68540000  0.48120000  0.62900000  1
  H  H240  1  0.98190000  0.71340000  0.39640000  1
  H  H241  1  0.90830000  0.21340000  0.89640000  1
  H  H242  1  0.36320000  0.76880000  0.33520000  1
  H  H243  1  0.53280000  0.26880000  0.83520000  1
  H  H244  1  0.16660000  0.82390000  0.27250000  1
  H  H245  1  0.73700000  0.32390000  0.77250000  1
  H  H246  1  0.29430000  0.85800000  0.23220000  1
  H  H247  1  0.61550000  0.35800000  0.73220000  1
  H  H248  1  0.09770000  0.13750000  0.93850000  1
  H  H249  1  0.82630000  0.63750000  0.43850000  1
  H  H250  1  0.30560000  0.64910000  0.40390000  1
  H  H251  1  0.64140000  0.14910000  0.90390000  1
  H  H252  1  0.47970000  0.12670000  0.91030000  1
  H  H253  1  0.48330000  0.62670000  0.41030000  1
  H  H254  1  0.45220000  0.21580000  0.81060000  1
  H  H255  1  0.52140000  0.71580000  0.31060000  1
  H  H256  1  0.24970000  0.55400000  0.46080000  1
  H  H257  1  0.73550000  0.05400000  0.96080000  1
  N  N258  1  0.64445000  0.05229000  0.94341000  1
  N  N259  1  0.35985000  0.55229000  0.44341000  1
  N  N260  1  0.60035000  0.91154000  0.95116000  1
  N  N261  1  0.53695000  0.41154000  0.45116000  1
  N  N262  1  0.65604000  0.32800000  0.52152000  1
  N  N263  1  0.49444000  0.82800000  0.02152000  1
  N  N264  1  0.79679000  0.98577000  0.62945000  1
  N  N265  1  0.58799000  0.48577000  0.12945000  1
  N  N266  1  0.78070000  0.05354000  0.53946000  1
  N  N267  1  0.62630000  0.55354000  0.03946000  1
  N  N268  1  0.98023000  0.07970000  0.43804000  1
  N  N269  1  0.50203000  0.57970000  0.93804000  1
  N  N270  1  0.01977000  0.92030000  0.56196000  1
  N  N271  1  0.49797000  0.42030000  0.06196000  1
  N  N272  1  0.21930000  0.94646000  0.46054000  1
  N  N273  1  0.37370000  0.44646000  0.96054000  1
  N  N274  1  0.20321000  0.01423000  0.37055000  1
  N  N275  1  0.41201000  0.51423000  0.87055000  1
  N  N276  1  0.34396000  0.67200000  0.47848000  1
  N  N277  1  0.50556000  0.17200000  0.97848000  1
  N  N278  1  0.39965000  0.08846000  0.04884000  1
  N  N279  1  0.46305000  0.58846000  0.54884000  1
  N  N280  1  0.35555000  0.94771000  0.05659000  1
  N  N281  1  0.64015000  0.44771000  0.55659000  1
  Ni  Ni282  1  0.50000000  1.00000000  0.00000000  1
  Ni  Ni283  1  0.50000000  0.50000000  0.50000000  1
  Ni  Ni284  1  1.00000000  0.00000000  0.50000000  1
  Ni  Ni285  1  0.50000000  0.50000000  0.00000000  1
  O  O286  1  0.81663000  0.29953000  0.69101000  1
  O  O287  1  0.19283000  0.79953000  0.19101000  1
  O  O288  1  0.70196000  0.53263000  0.45205000  1
  O  O289  1  0.31336000  0.03263000  0.95205000  1
  O  O290  1  0.63431000  0.68293000  0.20785000  1
  O  O291  1  0.47491000  0.18293000  0.70785000  1
  O  O292  1  0.81844000  0.45054000  0.38698000  1
  O  O293  1  0.34404000  0.95054000  0.88698000  1
  O  O294  1  0.14260000  0.15470000  0.49810000  1
  O  O295  1  0.20460000  0.65470000  0.99810000  1
  O  O296  1  0.11492000  0.05488000  0.54808000  1
  O  O297  1  0.28212000  0.55488000  0.04808000  1
  O  O298  1  0.88508000  0.94512000  0.45192000  1
  O  O299  1  0.71788000  0.44512000  0.95192000  1
  O  O300  1  0.85740000  0.84530000  0.50190000  1
  O  O301  1  0.79540000  0.34530000  0.00190000  1
  O  O302  1  0.18156000  0.54946000  0.61302000  1
  O  O303  1  0.65596000  0.04946000  0.11302000  1
  O  O304  1  0.36569000  0.31707000  0.79215000  1
  O  O305  1  0.52509000  0.81707000  0.29215000  1
  O  O306  1  0.29804000  0.46737000  0.54795000  1
  O  O307  1  0.68664000  0.96737000  0.04795000  1
  O  O308  1  0.18337000  0.70047000  0.30899000  1
  O  O309  1  0.80717000  0.20047000  0.80899000  1
