# generated using pymatgen
data_Mn3Zn4C96N6Cl3O19
_symmetry_space_group_name_H-M   'P 1'
_cell_length_a   29.66880000
_cell_length_b   29.66880000
_cell_length_c   29.67943683
_cell_angle_alpha   60.01185476
_cell_angle_beta   60.01185476
_cell_angle_gamma   60.00000000
_symmetry_Int_Tables_number   1
_chemical_formula_structural   Mn3Zn4C96N6Cl3O19
_chemical_formula_sum   'Mn12 Zn16 C384 N24 Cl12 O76'
_cell_volume   18476.44509173
_cell_formula_units_Z   4
loop_
 _symmetry_equiv_pos_site_id
 _symmetry_equiv_pos_as_xyz
  1  'x, y, z'
loop_
 _atom_site_type_symbol
 _atom_site_label
 _atom_site_symmetry_multiplicity
 _atom_site_fract_x
 _atom_site_fract_y
 _atom_site_fract_z
 _atom_site_occupancy
  C  C0  1  0.72060000  0.63460000  0.46320000  1
  C  C1  1  0.59500000  0.66070000  0.60770000  1
  C  C2  1  0.93150000  0.46970000  0.88370000  1
  C  C3  1  0.29880000  0.90240000  0.18110000  1
  C  C4  1  0.65050000  0.60520000  0.59510000  1
  C  C5  1  0.86200000  0.88590000  0.85400000  1
  C  C6  1  0.31100000  0.31240000  0.53830000  1
  C  C7  1  0.66140000  0.41960000  0.84980000  1
  C  C8  1  0.18230000  0.70430000  0.13970000  1
  C  C9  1  0.89910000  0.85300000  0.83960000  1
  C  C10  1  0.29540000  0.83140000  0.77690000  1
  C  C11  1  0.90690000  0.44420000  0.93980000  1
  C  C12  1  0.62440000  0.29640000  0.58380000  1
  C  C13  1  0.63430000  0.69300000  0.47400000  1
  C  C14  1  0.98090000  0.74160000  0.88010000  1
  C  C15  1  0.52970000  0.09070000  0.03290000  1
  C  C16  1  0.74860000  0.33420000  0.83810000  1
  C  C17  1  0.98870000  0.57450000  0.11660000  1
  C  C18  1  0.90240000  0.61770000  0.18110000  1
  C  C19  1  0.15740000  0.68460000  0.19670000  1
  C  C20  1  0.57450000  0.32020000  0.11660000  1
  C  C21  1  0.33420000  0.07910000  0.83810000  1
  C  C22  1  0.08620000  0.41660000  0.20290000  1
  C  C23  1  0.27900000  0.29500000  0.59500000  1
  C  C24  1  0.23090000  0.98840000  0.12650000  1
  C  C25  1  0.65420000  0.23090000  0.12650000  1
  C  C26  1  0.56550000  0.56550000  0.75630000  1
  C  C27  1  0.98030000  0.17920000  0.21290000  1
  C  C28  1  0.39740000  0.98090000  0.88010000  1
  C  C29  1  0.06920000  0.66140000  0.84980000  1
  C  C30  1  0.70120000  0.38230000  0.81890000  1
  C  C31  1  0.72480000  0.93370000  0.95360000  1
  C  C32  1  0.93370000  0.38790000  0.95360000  1
  C  C33  1  0.05620000  0.73660000  0.24410000  1
  C  C34  1  0.80710000  0.48940000  0.98720000  1
  C  C35  1  0.53590000  0.35260000  0.59220000  1
  C  C36  1  0.69460000  0.13490000  0.18020000  1
  C  C37  1  0.44570000  0.88810000  0.92300000  1
  C  C38  1  0.17920000  0.62760000  0.21290000  1
  C  C39  1  0.25140000  0.92090000  0.16190000  1
  C  C40  1  0.01130000  0.67980000  0.88340000  1
  C  C41  1  0.78950000  0.96150000  0.29240000  1
  C  C42  1  0.53950000  0.71350000  0.03790000  1
  C  C43  1  0.03590000  0.21820000  0.53620000  1
  C  C44  1  0.28880000  0.46060000  0.79290000  1
  C  C45  1  0.93080000  0.58040000  0.15020000  1
  C  C46  1  0.05910000  0.44280000  0.16270000  1
  C  C47  1  0.42190000  0.35740000  0.24640000  1
  C  C48  1  0.48860000  0.80250000  0.97670000  1
  C  C49  1  0.45770000  0.28880000  0.79290000  1
  C  C50  1  0.73800000  0.04880000  0.23240000  1
  C  C51  1  0.95660000  0.78950000  0.29240000  1
  C  C52  1  0.60260000  0.25840000  0.11990000  1
  C  C53  1  0.70910000  0.53950000  0.03790000  1
  C  C54  1  0.06960000  0.36950000  0.25120000  1
  C  C55  1  0.34580000  0.01160000  0.87350000  1
  C  C56  1  0.44300000  0.37780000  0.17830000  1
  C  C57  1  0.09350000  0.70420000  0.21050000  1
  C  C58  1  0.84480000  0.45800000  0.95270000  1
  C  C59  1  0.20970000  0.03590000  0.53620000  1
  C  C60  1  0.51680000  0.28560000  0.69720000  1
  C  C61  1  0.35260000  0.51930000  0.59220000  1
  C  C62  1  0.57100000  0.29670000  0.59790000  1
  C  C63  1  0.29250000  0.30150000  0.50470000  1
  C  C64  1  0.30420000  0.32750000  0.44800000  1
  C  C65  1  0.27770000  0.01410000  0.44740000  1
  C  C66  1  0.99986000  0.75346000  0.25502000  1
  C  C67  1  0.49800000  0.25600000  0.75270000  1
  C  C68  1  0.75081000  0.50471000  0.99917000  1
  C  C69  1  0.27520000  0.61210000  0.04640000  1
  C  C70  1  0.54430000  0.55210000  0.73260000  1
  C  C71  1  0.25600000  0.49330000  0.75270000  1
  C  C72  1  0.28560000  0.50040000  0.69720000  1
  C  C73  1  0.55340000  0.25790000  0.65910000  1
  C  C74  1  0.01970000  0.37240000  0.78710000  1
  C  C75  1  0.96130000  0.15740000  0.19670000  1
  C  C76  1  0.25170000  0.99520000  0.50410000  1
  C  C77  1  0.50471000  0.74531000  0.99917000  1
  C  C78  1  0.45730000  0.83070000  0.94220000  1
  C  C79  1  0.97370000  0.18230000  0.13970000  1
  C  C80  1  0.70560000  0.07750000  0.19880000  1
  C  C81  1  0.04890000  0.07440000  0.18800000  1
  C  C82  1  0.75346000  0.99166000  0.25502000  1
  C  C83  1  0.80170000  0.82620000  0.93020000  1
  C  C84  1  0.99520000  0.24900000  0.50410000  1
  C  C85  1  0.88810000  0.74320000  0.92300000  1
  C  C86  1  0.33770000  0.00100000  0.36190000  1
  C  C87  1  0.13490000  0.99030000  0.18020000  1
  C  C88  1  0.28310000  0.58770000  0.55980000  1
  C  C89  1  0.09630000  0.29540000  0.77690000  1
  C  C90  1  0.70910000  0.90690000  0.93980000  1
  C  C91  1  0.55150000  0.57110000  0.67680000  1
  C  C92  1  0.01410000  0.26080000  0.44740000  1
  C  C93  1  0.31550000  0.97660000  0.41950000  1
  C  C94  1  0.71510000  0.93150000  0.88370000  1
  C  C95  1  0.37050000  0.34990000  0.27190000  1
  C  C96  1  0.34670000  0.52970000  0.03290000  1
  C  C97  1  0.29670000  0.53440000  0.59790000  1
  C  C98  1  0.00090000  0.44300000  0.17830000  1
  C  C99  1  0.02630000  0.29570000  0.86030000  1
  C  C100  1  0.83070000  0.76980000  0.94220000  1
  C  C101  1  0.07750000  0.01810000  0.19880000  1
  C  C102  1  0.51570000  0.19870000  0.77040000  1
  C  C103  1  0.19870000  0.51520000  0.77040000  1
  C  C104  1  0.97430000  0.42190000  0.24640000  1
  C  C105  1  0.25790000  0.52960000  0.65910000  1
  C  C106  1  0.00770000  0.37050000  0.27190000  1
  C  C107  1  0.28490000  0.53030000  0.11630000  1
  C  C108  1  0.56940000  0.28310000  0.55980000  1
  C  C109  1  0.99180000  0.09350000  0.21050000  1
  C  C110  1  0.93870000  0.26480000  0.53290000  1
  C  C111  1  0.74450000  0.84480000  0.95270000  1
  C  C112  1  0.26360000  0.93870000  0.53290000  1
  C  C113  1  0.03870000  0.31540000  0.80330000  1
  C  C114  1  0.57110000  0.20060000  0.67680000  1
  C  C115  1  0.07440000  0.68870000  0.18800000  1
  C  C116  1  0.82620000  0.44190000  0.93020000  1
  C  C117  1  0.90370000  0.16860000  0.22310000  1
  C  C118  1  0.04340000  0.03850000  0.70760000  1
  C  C119  1  0.29090000  0.55580000  0.06020000  1
  C  C120  1  0.44280000  0.33540000  0.16270000  1
  C  C121  1  0.54230000  0.53940000  0.20710000  1
  C  C122  1  0.29090000  0.28650000  0.96210000  1
  C  C123  1  0.26480000  0.26360000  0.53290000  1
  C  C124  1  0.28840000  0.31550000  0.41950000  1
  C  C125  1  0.46410000  0.48070000  0.40780000  1
  C  C126  1  0.79030000  0.78180000  0.46380000  1
  C  C127  1  0.30970000  0.06960000  0.25120000  1
  C  C128  1  0.32750000  0.92030000  0.44800000  1
  C  C129  1  0.29940000  0.33770000  0.36190000  1
  C  C130  1  0.55210000  0.17100000  0.73260000  1
  C  C131  1  0.97660000  0.28840000  0.41950000  1
  C  C132  1  0.51520000  0.51570000  0.77040000  1
  C  C133  1  0.18160000  0.72060000  0.46320000  1
  C  C134  1  0.00100000  0.29940000  0.36190000  1
  C  C135  1  0.81840000  0.36540000  0.53680000  1
  C  C136  1  0.69300000  0.19870000  0.47400000  1
  C  C137  1  0.65330000  0.90930000  0.96710000  1
  C  C138  1  0.98080000  0.73800000  0.23240000  1
  C  C139  1  0.30150000  0.90130000  0.50470000  1
  C  C140  1  0.34990000  0.00770000  0.27190000  1
  C  C141  1  0.73220000  0.48860000  0.97670000  1
  C  C142  1  0.17100000  0.54430000  0.73260000  1
  C  C143  1  0.20060000  0.55150000  0.67680000  1
  C  C144  1  0.66070000  0.13660000  0.60770000  1
  C  C145  1  0.40830000  0.89910000  0.83960000  1
  C  C146  1  0.48940000  0.71630000  0.98720000  1
  C  C147  1  0.44190000  0.80170000  0.93020000  1
  C  C148  1  0.58770000  0.56940000  0.55980000  1
  C  C149  1  0.90130000  0.29250000  0.50470000  1
  C  C150  1  0.40500000  0.86340000  0.39230000  1
  C  C151  1  0.14920000  0.65050000  0.59510000  1
  C  C152  1  0.68870000  0.04890000  0.18800000  1
  C  C153  1  0.73660000  0.96310000  0.24410000  1
  C  C154  1  0.55430000  0.25680000  0.07700000  1
  C  C155  1  0.30540000  0.00970000  0.81980000  1
  C  C156  1  0.92030000  0.30420000  0.44800000  1
  C  C157  1  0.01810000  0.70560000  0.19880000  1
  C  C158  1  0.29500000  0.83100000  0.59500000  1
  C  C159  1  0.52960000  0.55340000  0.65910000  1
  C  C160  1  0.76980000  0.45730000  0.94220000  1
  C  C161  1  0.88590000  0.39810000  0.85400000  1
  C  C162  1  0.80250000  0.73220000  0.97670000  1
  C  C163  1  0.48320000  0.49960000  0.30280000  1
  C  C164  1  0.04880000  0.98080000  0.23240000  1
  C  C165  1  0.36570000  0.80130000  0.52600000  1
  C  C166  1  0.29430000  0.08620000  0.20290000  1
  C  C167  1  0.11270000  0.56550000  0.75630000  1
  C  C168  1  0.56550000  0.11270000  0.75630000  1
  C  C169  1  0.85080000  0.39480000  0.40490000  1
  C  C170  1  0.96310000  0.05620000  0.24410000  1
  C  C171  1  0.71630000  0.80710000  0.98720000  1
  C  C172  1  0.29640000  0.49540000  0.58380000  1
  C  C173  1  0.36950000  0.30970000  0.25120000  1
  C  C174  1  0.41660000  0.29430000  0.20290000  1
  C  C175  1  0.59170000  0.14700000  0.16040000  1
  C  C176  1  0.31240000  0.83830000  0.53830000  1
  C  C177  1  0.49540000  0.62440000  0.58380000  1
  C  C178  1  0.83830000  0.31100000  0.53830000  1
  C  C179  1  0.50200000  0.50670000  0.24730000  1
  C  C180  1  0.83100000  0.27900000  0.59500000  1
  C  C181  1  0.00014000  0.00834000  0.74498000  1
  C  C182  1  0.24919000  0.25469000  0.00083000  1
  C  C183  1  0.45800000  0.74450000  0.95270000  1
  C  C184  1  0.02570000  0.64260000  0.75360000  1
  C  C185  1  0.53440000  0.57100000  0.59790000  1
  C  C186  1  0.13800000  0.60190000  0.14600000  1
  C  C187  1  0.24900000  0.25170000  0.50410000  1
  C  C188  1  0.26080000  0.27770000  0.44740000  1
  C  C189  1  0.70420000  0.99180000  0.21050000  1
  C  C190  1  0.33540000  0.05910000  0.16270000  1
  C  C191  1  0.99910000  0.62220000  0.82170000  1
  C  C192  1  0.37780000  0.00090000  0.17830000  1
  C  C193  1  0.94090000  0.66460000  0.83730000  1
  C  C194  1  0.00820000  0.29580000  0.78950000  1
  C  C195  1  0.74830000  0.75100000  0.49590000  1
  C  C196  1  0.72230000  0.73920000  0.55260000  1
  C  C197  1  0.39810000  0.86200000  0.85400000  1
  C  C198  1  0.42900000  0.46560000  0.40210000  1
  C  C199  1  0.35740000  0.97430000  0.24640000  1
  C  C200  1  0.25550000  0.54200000  0.04730000  1
  C  C201  1  0.74531000  0.75081000  0.99917000  1
  C  C202  1  0.99166000  0.99986000  0.25502000  1
  C  C203  1  0.72100000  0.16900000  0.40500000  1
  C  C204  1  0.49330000  0.49800000  0.75270000  1
  C  C205  1  0.68900000  0.16170000  0.46170000  1
  C  C206  1  0.37560000  0.50460000  0.41620000  1
  C  C207  1  0.16170000  0.68760000  0.46170000  1
  C  C208  1  0.85300000  0.40830000  0.83960000  1
  C  C209  1  0.70570000  0.58340000  0.79710000  1
  C  C210  1  0.69030000  0.63050000  0.74880000  1
  C  C211  1  0.50460000  0.70360000  0.41620000  1
  C  C212  1  0.19290000  0.28370000  0.01280000  1
  C  C213  1  0.94380000  0.03690000  0.75590000  1
  C  C214  1  0.60520000  0.14920000  0.59510000  1
  C  C215  1  0.88730000  0.43450000  0.24370000  1
  C  C216  1  0.43450000  0.88730000  0.24370000  1
  C  C217  1  0.91380000  0.70570000  0.79710000  1
  C  C218  1  0.19870000  0.63430000  0.47400000  1
  C  C219  1  0.01920000  0.95120000  0.76760000  1
  C  C220  1  0.50040000  0.51680000  0.69720000  1
  C  C221  1  0.26780000  0.19750000  0.02330000  1
  C  C222  1  0.60190000  0.11410000  0.14600000  1
  C  C223  1  0.54270000  0.23020000  0.05780000  1
  C  C224  1  0.44660000  0.47040000  0.34090000  1
  C  C225  1  0.16900000  0.70500000  0.40500000  1
  C  C226  1  0.29440000  0.98190000  0.80120000  1
  C  C227  1  0.69580000  0.07970000  0.55200000  1
  C  C228  1  0.99030000  0.69460000  0.18020000  1
  C  C229  1  0.03690000  0.26340000  0.75590000  1
  C  C230  1  0.74320000  0.44570000  0.92300000  1
  C  C231  1  0.95110000  0.31130000  0.81200000  1
  C  C232  1  0.34950000  0.85080000  0.40490000  1
  C  C233  1  0.13660000  0.59500000  0.60770000  1
  C  C234  1  0.70750000  0.09870000  0.49530000  1
  C  C235  1  0.43060000  0.41230000  0.44020000  1
  C  C236  1  0.19830000  0.55810000  0.06980000  1
  C  C237  1  0.28370000  0.51060000  0.01280000  1
  C  C238  1  0.10090000  0.59170000  0.16040000  1
  C  C239  1  0.86340000  0.33930000  0.39230000  1
  C  C240  1  0.44850000  0.79940000  0.32320000  1
  C  C241  1  0.45570000  0.82900000  0.26740000  1
  C  C242  1  0.51140000  0.26780000  0.02330000  1
  C  C243  1  0.99230000  0.65010000  0.72810000  1
  C  C244  1  0.09870000  0.69850000  0.49530000  1
  C  C245  1  0.26200000  0.01920000  0.76760000  1
  C  C246  1  0.09070000  0.34670000  0.03290000  1
  C  C247  1  0.80130000  0.30700000  0.52600000  1
  C  C248  1  0.70060000  0.99900000  0.63810000  1
  C  C249  1  0.63460000  0.18160000  0.46320000  1
  C  C250  1  0.27940000  0.81840000  0.53680000  1
  C  C251  1  0.48430000  0.48480000  0.22960000  1
  C  C252  1  0.71160000  0.02340000  0.58050000  1
  C  C253  1  0.82900000  0.44790000  0.26740000  1
  C  C254  1  0.66230000  0.70060000  0.63810000  1
  C  C255  1  0.07970000  0.67250000  0.55200000  1
  C  C256  1  0.93040000  0.69030000  0.74880000  1
  C  C257  1  0.21820000  0.20970000  0.53620000  1
  C  C258  1  0.51930000  0.53590000  0.59220000  1
  C  C259  1  0.68450000  0.71160000  0.58050000  1
  C  C260  1  0.73640000  0.73520000  0.46710000  1
  C  C261  1  0.71350000  0.70910000  0.03790000  1
  C  C262  1  0.46060000  0.45770000  0.79290000  1
  C  C263  1  0.66460000  0.55720000  0.83730000  1
  C  C264  1  0.44420000  0.70910000  0.93980000  1
  C  C265  1  0.96150000  0.95660000  0.29240000  1
  C  C266  1  0.83140000  0.09630000  0.77690000  1
  C  C267  1  0.55810000  0.17380000  0.06980000  1
  C  C268  1  0.31130000  0.92560000  0.81200000  1
  C  C269  1  0.79940000  0.42890000  0.32320000  1
  C  C270  1  0.68460000  0.96130000  0.19670000  1
  C  C271  1  0.06130000  0.73640000  0.46710000  1
  C  C272  1  0.15520000  0.25550000  0.04730000  1
  C  C273  1  0.73520000  0.06130000  0.46710000  1
  C  C274  1  0.90650000  0.00820000  0.78950000  1
  C  C275  1  0.71690000  0.43060000  0.44020000  1
  C  C276  1  0.46970000  0.71510000  0.88370000  1
  C  C277  1  0.62950000  0.99230000  0.72810000  1
  C  C278  1  0.47040000  0.74210000  0.34090000  1
  C  C279  1  0.57810000  0.02570000  0.75360000  1
  C  C280  1  0.48480000  0.80130000  0.22960000  1
  C  C281  1  0.80130000  0.48430000  0.22960000  1
  C  C282  1  0.98190000  0.92250000  0.80120000  1
  C  C283  1  0.23020000  0.16930000  0.05780000  1
  C  C284  1  0.70430000  0.97370000  0.13970000  1
  C  C285  1  0.55700000  0.99910000  0.82170000  1
  C  C286  1  0.46560000  0.70330000  0.40210000  1
  C  C287  1  0.47030000  0.65330000  0.96710000  1
  C  C288  1  0.65010000  0.62950000  0.72810000  1
  C  C289  1  0.06850000  0.28490000  0.11630000  1
  C  C290  1  0.02340000  0.68450000  0.58050000  1
  C  C291  1  0.73920000  0.98590000  0.55260000  1
  C  C292  1  0.42890000  0.44850000  0.32320000  1
  C  C293  1  0.09310000  0.29090000  0.06020000  1
  C  C294  1  0.70460000  0.90370000  0.22310000  1
  C  C295  1  0.41230000  0.71690000  0.44020000  1
  C  C296  1  0.00970000  0.86510000  0.81980000  1
  C  C297  1  0.25680000  0.11190000  0.07700000  1
  C  C298  1  0.99900000  0.66230000  0.63810000  1
  C  C299  1  0.75100000  0.00480000  0.49590000  1
  C  C300  1  0.17380000  0.19830000  0.06980000  1
  C  C301  1  0.00834000  0.24654000  0.74498000  1
  C  C302  1  0.92560000  0.95110000  0.81200000  1
  C  C303  1  0.92250000  0.29440000  0.80120000  1
  C  C304  1  0.81770000  0.02630000  0.86030000  1
  C  C305  1  0.25469000  0.49529000  0.00083000  1
  C  C306  1  0.16930000  0.54270000  0.05780000  1
  C  C307  1  0.00480000  0.74830000  0.49590000  1
  C  C308  1  0.84260000  0.03870000  0.80330000  1
  C  C309  1  0.62760000  0.98030000  0.21290000  1
  C  C310  1  0.74210000  0.44660000  0.34090000  1
  C  C311  1  0.49960000  0.71440000  0.30280000  1
  C  C312  1  0.50670000  0.74400000  0.24730000  1
  C  C313  1  0.44790000  0.45570000  0.26740000  1
  C  C314  1  0.38790000  0.72480000  0.95360000  1
  C  C315  1  0.49529000  0.24919000  0.00083000  1
  C  C316  1  0.74400000  0.50200000  0.24730000  1
  C  C317  1  0.24654000  0.00014000  0.74498000  1
  C  C318  1  0.98590000  0.72230000  0.55260000  1
  C  C319  1  0.67250000  0.69580000  0.55200000  1
  C  C320  1  0.69850000  0.70750000  0.49530000  1
  C  C321  1  0.70330000  0.42900000  0.40210000  1
  C  C322  1  0.48070000  0.64740000  0.40780000  1
  C  C323  1  0.71440000  0.48320000  0.30280000  1
  C  C324  1  0.96410000  0.79030000  0.46380000  1
  C  C325  1  0.54200000  0.15520000  0.04730000  1
  C  C326  1  0.29580000  0.90650000  0.78950000  1
  C  C327  1  0.62220000  0.55700000  0.82170000  1
  C  C328  1  0.98840000  0.65420000  0.12650000  1
  C  C329  1  0.63050000  0.93040000  0.74880000  1
  C  C330  1  0.46050000  0.29090000  0.96210000  1
  C  C331  1  0.74160000  0.39740000  0.88010000  1
  C  C332  1  0.21050000  0.04340000  0.70760000  1
  C  C333  1  0.95120000  0.26200000  0.76760000  1
  C  C334  1  0.71120000  0.54230000  0.20710000  1
  C  C335  1  0.19750000  0.51140000  0.02330000  1
  C  C336  1  0.64260000  0.57810000  0.75360000  1
  C  C337  1  0.55720000  0.94090000  0.83730000  1
  C  C338  1  0.53940000  0.71120000  0.20710000  1
  C  C339  1  0.41960000  0.06920000  0.84980000  1
  C  C340  1  0.78180000  0.96410000  0.46380000  1
  C  C341  1  0.28650000  0.46050000  0.96210000  1
  C  C342  1  0.03850000  0.21050000  0.70760000  1
  C  C343  1  0.32020000  0.98870000  0.11660000  1
  C  C344  1  0.07910000  0.74860000  0.83810000  1
  C  C345  1  0.37240000  0.82080000  0.78710000  1
  C  C346  1  0.11190000  0.55430000  0.07700000  1
  C  C347  1  0.86510000  0.30540000  0.81980000  1
  C  C348  1  0.64740000  0.46410000  0.40780000  1
  C  C349  1  0.51060000  0.19290000  0.01280000  1
  C  C350  1  0.26340000  0.94380000  0.75590000  1
  C  C351  1  0.61210000  0.06630000  0.04640000  1
  C  C352  1  0.06630000  0.27520000  0.04640000  1
  C  C353  1  0.61770000  0.29880000  0.18110000  1
  C  C354  1  0.33860000  0.93080000  0.15020000  1
  C  C355  1  0.01910000  0.60260000  0.11990000  1
  C  C356  1  0.82080000  0.01970000  0.78710000  1
  C  C357  1  0.43450000  0.43450000  0.24370000  1
  C  C358  1  0.76910000  0.34580000  0.87350000  1
  C  C359  1  0.01160000  0.76910000  0.87350000  1
  C  C360  1  0.70500000  0.72100000  0.40500000  1
  C  C361  1  0.58340000  0.91380000  0.79710000  1
  C  C362  1  0.92090000  0.66580000  0.16190000  1
  C  C363  1  0.67980000  0.42550000  0.88340000  1
  C  C364  1  0.31540000  0.84260000  0.80330000  1
  C  C365  1  0.38230000  0.09760000  0.81890000  1
  C  C366  1  0.42550000  0.01130000  0.88340000  1
  C  C367  1  0.66580000  0.25140000  0.16190000  1
  C  C368  1  0.90930000  0.47030000  0.96710000  1
  C  C369  1  0.25840000  0.01910000  0.11990000  1
  C  C370  1  0.30700000  0.36570000  0.52600000  1
  C  C371  1  0.70360000  0.37560000  0.41620000  1
  C  C372  1  0.55580000  0.09310000  0.06020000  1
  C  C373  1  0.16860000  0.70460000  0.22310000  1
  C  C374  1  0.14700000  0.10090000  0.16040000  1
  C  C375  1  0.29570000  0.81770000  0.86030000  1
  C  C376  1  0.58040000  0.33860000  0.15020000  1
  C  C377  1  0.68760000  0.68900000  0.46170000  1
  C  C378  1  0.11410000  0.13800000  0.14600000  1
  C  C379  1  0.39480000  0.34950000  0.40490000  1
  C  C380  1  0.09760000  0.70120000  0.81890000  1
  C  C381  1  0.53030000  0.06850000  0.11630000  1
  C  C382  1  0.33930000  0.40500000  0.39230000  1
  C  C383  1  0.36540000  0.27940000  0.53680000  1
  Cl  Cl384  1  0.46150000  0.28460000  0.37450000  1
  Cl  Cl385  1  0.14010000  0.11240000  0.03290000  1
  Cl  Cl386  1  0.87940000  0.46150000  0.37450000  1
  Cl  Cl387  1  0.12060000  0.71540000  0.62550000  1
  Cl  Cl388  1  0.71460000  0.14010000  0.03290000  1
  Cl  Cl389  1  0.11240000  0.71460000  0.03290000  1
  Cl  Cl390  1  0.28540000  0.88760000  0.96710000  1
  Cl  Cl391  1  0.85990000  0.28540000  0.96710000  1
  Cl  Cl392  1  0.28460000  0.87940000  0.37450000  1
  Cl  Cl393  1  0.53850000  0.12060000  0.62550000  1
  Cl  Cl394  1  0.88760000  0.85990000  0.96710000  1
  Cl  Cl395  1  0.71540000  0.53850000  0.62550000  1
  Mn  Mn396  1  0.15352000  0.09842000  0.10664000  1
  Mn  Mn397  1  0.39018000  0.35808000  0.35446000  1
  Mn  Mn398  1  0.64142000  0.15352000  0.10664000  1
  Mn  Mn399  1  0.89728000  0.39018000  0.35446000  1
  Mn  Mn400  1  0.35858000  0.90158000  0.89336000  1
  Mn  Mn401  1  0.10272000  0.64192000  0.64554000  1
  Mn  Mn402  1  0.35808000  0.89728000  0.35446000  1
  Mn  Mn403  1  0.09842000  0.64142000  0.10664000  1
  Mn  Mn404  1  0.60982000  0.10272000  0.64554000  1
  Mn  Mn405  1  0.84648000  0.35858000  0.89336000  1
  Mn  Mn406  1  0.64192000  0.60982000  0.64554000  1
  Mn  Mn407  1  0.90158000  0.84648000  0.89336000  1
  N  N408  1  0.42870000  0.38430000  0.27040000  1
  N  N409  1  0.92610000  0.76540000  0.90560000  1
  N  N410  1  0.17180000  0.01650000  0.14570000  1
  N  N411  1  0.66600000  0.17180000  0.14570000  1
  N  N412  1  0.40290000  0.92610000  0.90560000  1
  N  N413  1  0.35150000  0.33990000  0.32770000  1
  N  N414  1  0.59710000  0.23460000  0.09440000  1
  N  N415  1  0.33400000  0.98350000  0.85430000  1
  N  N416  1  0.98090000  0.35150000  0.32770000  1
  N  N417  1  0.33990000  0.98090000  0.32770000  1
  N  N418  1  0.91660000  0.42870000  0.27040000  1
  N  N419  1  0.08340000  0.61570000  0.72960000  1
  N  N420  1  0.38430000  0.91660000  0.27040000  1
  N  N421  1  0.57130000  0.08340000  0.72960000  1
  N  N422  1  0.01910000  0.66010000  0.67230000  1
  N  N423  1  0.64850000  0.01910000  0.67230000  1
  N  N424  1  0.01650000  0.66600000  0.14570000  1
  N  N425  1  0.76540000  0.40290000  0.90560000  1
  N  N426  1  0.66010000  0.64850000  0.67230000  1
  N  N427  1  0.07390000  0.59710000  0.09440000  1
  N  N428  1  0.82820000  0.33400000  0.85430000  1
  N  N429  1  0.98350000  0.82820000  0.85430000  1
  N  N430  1  0.23460000  0.07390000  0.09440000  1
  N  N431  1  0.61570000  0.57130000  0.72960000  1
  O  O432  1  0.12490000  0.12490000  0.62530000  1
  O  O433  1  0.37586667  0.37586667  0.87240000  1
  O  O434  1  0.62413333  0.62413333  0.12760000  1
  O  O435  1  0.87510000  0.87510000  0.37470000  1
  O  O436  1  0.55020000  0.74000000  0.05590000  1
  O  O437  1  0.98670000  0.80800000  0.29750000  1
  O  O438  1  0.79750000  0.98670000  0.31190000  1
  O  O439  1  0.73230000  0.55840000  0.05200000  1
  O  O440  1  0.33310000  0.36700000  0.42100000  1
  O  O441  1  0.34290000  0.44920000  0.76740000  1
  O  O442  1  0.09170000  0.20270000  0.51310000  1
  O  O443  1  0.44050000  0.34290000  0.76740000  1
  O  O444  1  0.07770000  0.11610000  0.15110000  1
  O  O445  1  0.19250000  0.09170000  0.51310000  1
  O  O446  1  0.82770000  0.86880000  0.89390000  1
  O  O447  1  0.58300000  0.60910000  0.63720000  1
  O  O448  1  0.01540000  0.20540000  0.59170000  1
  O  O449  1  0.26350000  0.44740000  0.84660000  1
  O  O450  1  0.44250000  0.26350000  0.84660000  1
  O  O451  1  0.55950000  0.55080000  0.23260000  1
  O  O452  1  0.18750000  0.01540000  0.59170000  1
  O  O453  1  0.80750000  0.79730000  0.48690000  1
  O  O454  1  0.55840000  0.65730000  0.05200000  1
  O  O455  1  0.80800000  0.90780000  0.29750000  1
  O  O456  1  0.90390000  0.79750000  0.31190000  1
  O  O457  1  0.26770000  0.34270000  0.94800000  1
  O  O458  1  0.65390000  0.55020000  0.05590000  1
  O  O459  1  0.01330000  0.09220000  0.70250000  1
  O  O460  1  0.34610000  0.26000000  0.94410000  1
  O  O461  1  0.09610000  0.01330000  0.68810000  1
  O  O462  1  0.81250000  0.79460000  0.40830000  1
  O  O463  1  0.55750000  0.55260000  0.15340000  1
  O  O464  1  0.86880000  0.40960000  0.89390000  1
  O  O465  1  0.11610000  0.65510000  0.15110000  1
  O  O466  1  0.60910000  0.17070000  0.63720000  1
  O  O467  1  0.36700000  0.87890000  0.42100000  1
  O  O468  1  0.17070000  0.58300000  0.63720000  1
  O  O469  1  0.66690000  0.12110000  0.57900000  1
  O  O470  1  0.65510000  0.07770000  0.15110000  1
  O  O471  1  0.17230000  0.59040000  0.10610000  1
  O  O472  1  0.40960000  0.82770000  0.89390000  1
  O  O473  1  0.92230000  0.34490000  0.84890000  1
  O  O474  1  0.87890000  0.33310000  0.42100000  1
  O  O475  1  0.41700000  0.82930000  0.36280000  1
  O  O476  1  0.12110000  0.63300000  0.57900000  1
  O  O477  1  0.82930000  0.39090000  0.36280000  1
  O  O478  1  0.34490000  0.88390000  0.84890000  1
  O  O479  1  0.59040000  0.13120000  0.10610000  1
  O  O480  1  0.44740000  0.44250000  0.84660000  1
  O  O481  1  0.20540000  0.18750000  0.59170000  1
  O  O482  1  0.98670000  0.90390000  0.31190000  1
  O  O483  1  0.74000000  0.65390000  0.05590000  1
  O  O484  1  0.90780000  0.98670000  0.29750000  1
  O  O485  1  0.44980000  0.34610000  0.94410000  1
  O  O486  1  0.65730000  0.73230000  0.05200000  1
  O  O487  1  0.20250000  0.09610000  0.68810000  1
  O  O488  1  0.09220000  0.19200000  0.70250000  1
  O  O489  1  0.34270000  0.44160000  0.94800000  1
  O  O490  1  0.20270000  0.19250000  0.51310000  1
  O  O491  1  0.98460000  0.81250000  0.40830000  1
  O  O492  1  0.44920000  0.44050000  0.76740000  1
  O  O493  1  0.73650000  0.55750000  0.15340000  1
  O  O494  1  0.55260000  0.73650000  0.15340000  1
  O  O495  1  0.79460000  0.98460000  0.40830000  1
  O  O496  1  0.39090000  0.41700000  0.36280000  1
  O  O497  1  0.13120000  0.17230000  0.10610000  1
  O  O498  1  0.90830000  0.80750000  0.48690000  1
  O  O499  1  0.88390000  0.92230000  0.84890000  1
  O  O500  1  0.65710000  0.55950000  0.23260000  1
  O  O501  1  0.79730000  0.90830000  0.48690000  1
  O  O502  1  0.55080000  0.65710000  0.23260000  1
  O  O503  1  0.63300000  0.66690000  0.57900000  1
  O  O504  1  0.44160000  0.26770000  0.94800000  1
  O  O505  1  0.01330000  0.20250000  0.68810000  1
  O  O506  1  0.19200000  0.01330000  0.70250000  1
  O  O507  1  0.26000000  0.44980000  0.94410000  1
  Zn  Zn508  1  0.15177000  0.15177000  0.54469000  1
  Zn  Zn509  1  0.40150667  0.40150667  0.79548000  1
  Zn  Zn510  1  0.59849333  0.59849333  0.20452000  1
  Zn  Zn511  1  0.84823000  0.84823000  0.45531000  1
  Zn  Zn512  1  0.29475000  0.40463000  0.90156000  1
  Zn  Zn513  1  0.15230000  0.04518000  0.65191000  1
  Zn  Zn514  1  0.04518000  0.15061000  0.65191000  1
  Zn  Zn515  1  0.39906000  0.29475000  0.90156000  1
  Zn  Zn516  1  0.84770000  0.84939000  0.34809000  1
  Zn  Zn517  1  0.60094000  0.59537000  0.09844000  1
  Zn  Zn518  1  0.40463000  0.39906000  0.90156000  1
  Zn  Zn519  1  0.15061000  0.15230000  0.65191000  1
  Zn  Zn520  1  0.70525000  0.60094000  0.09844000  1
  Zn  Zn521  1  0.84939000  0.95482000  0.34809000  1
  Zn  Zn522  1  0.95482000  0.84770000  0.34809000  1
  Zn  Zn523  1  0.59537000  0.70525000  0.09844000  1
