# generated using pymatgen
data_CdH5C4N9
_symmetry_space_group_name_H-M   'P 1'
_cell_length_a   8.41460000
_cell_length_b   9.95280000
_cell_length_c   11.91371152
_cell_angle_alpha   114.68968982
_cell_angle_beta   104.13989372
_cell_angle_gamma   90.00000000
_symmetry_Int_Tables_number   1
_chemical_formula_structural   CdH5C4N9
_chemical_formula_sum   'Cd4 H20 C16 N36'
_cell_volume   873.16547182
_cell_formula_units_Z   4
loop_
 _symmetry_equiv_pos_site_id
 _symmetry_equiv_pos_as_xyz
  1  'x, y, z'
loop_
 _atom_site_type_symbol
 _atom_site_label
 _atom_site_symmetry_multiplicity
 _atom_site_fract_x
 _atom_site_fract_y
 _atom_site_fract_z
 _atom_site_occupancy
  C  C0  1  0.45100000  0.62589000  0.77838000  1
  C  C1  1  0.95100000  0.15249000  0.77838000  1
  C  C2  1  0.87500000  0.70949000  0.76258000  1
  C  C3  1  0.37500000  0.05309000  0.76258000  1
  C  C4  1  0.70280000  0.63451000  0.71442000  1
  C  C5  1  0.20280000  0.07991000  0.71442000  1
  C  C6  1  0.39350000  0.46862000  0.67664000  1
  C  C7  1  0.89350000  0.20802000  0.67664000  1
  C  C8  1  0.60650000  0.53138000  0.32336000  1
  C  C9  1  0.10650000  0.79198000  0.32336000  1
  C  C10  1  0.29720000  0.36549000  0.28558000  1
  C  C11  1  0.79720000  0.92009000  0.28558000  1
  C  C12  1  0.12500000  0.29051000  0.23742000  1
  C  C13  1  0.62500000  0.94691000  0.23742000  1
  C  C14  1  0.54900000  0.37411000  0.22162000  1
  C  C15  1  0.04900000  0.84751000  0.22162000  1
  Cd  Cd16  1  0.75000000  0.90325000  1.00000000  1
  Cd  Cd17  1  0.25000000  0.09675000  1.00000000  1
  Cd  Cd18  1  1.00000000  0.50000000  0.50000000  1
  Cd  Cd19  1  0.50000000  0.00000000  0.50000000  1
  H  H20  1  0.66900000  0.59250000  0.85900000  1
  H  H21  1  0.16900000  0.26650000  0.85900000  1
  H  H22  1  0.40760000  0.64180000  0.85080000  1
  H  H23  1  0.90760000  0.20900000  0.85080000  1
  H  H24  1  0.40690000  0.69500000  0.74400000  1
  H  H25  1  0.90690000  0.04900000  0.74400000  1
  H  H26  1  0.70210000  0.52870000  0.66340000  1
  H  H27  1  0.20210000  0.13470000  0.66340000  1
  H  H28  1  0.63500000  0.67460000  0.66000000  1
  H  H29  1  0.13500000  0.98540000  0.66000000  1
  H  H30  1  0.36500000  0.32540000  0.34000000  1
  H  H31  1  0.86500000  0.01460000  0.34000000  1
  H  H32  1  0.29790000  0.47130000  0.33660000  1
  H  H33  1  0.79790000  0.86530000  0.33660000  1
  H  H34  1  0.59310000  0.30500000  0.25600000  1
  H  H35  1  0.09310000  0.95100000  0.25600000  1
  H  H36  1  0.59240000  0.35820000  0.14920000  1
  H  H37  1  0.09240000  0.79100000  0.14920000  1
  H  H38  1  0.33100000  0.40750000  0.14100000  1
  H  H39  1  0.83100000  0.73350000  0.14100000  1
  N  N40  1  0.08320000  0.87122000  0.87704000  1
  N  N41  1  0.58320000  0.00582000  0.87704000  1
  N  N42  1  0.92920000  0.82884000  0.87348000  1
  N  N43  1  0.42920000  0.04464000  0.87348000  1
  N  N44  1  0.63320000  0.65775000  0.82370000  1
  N  N45  1  0.13320000  0.16595000  0.82370000  1
  N  N46  1  0.11970000  0.78041000  0.77282000  1
  N  N47  1  0.61970000  0.99241000  0.77282000  1
  N  N48  1  0.99110000  0.67609000  0.69918000  1
  N  N49  1  0.49110000  0.02309000  0.69918000  1
  N  N50  1  0.47610000  0.35423000  0.67546000  1
  N  N51  1  0.97610000  0.32123000  0.67546000  1
  N  N52  1  0.26120000  0.42591000  0.57622000  1
  N  N53  1  0.76120000  0.15031000  0.57622000  1
  N  N54  1  0.89040000  0.33162000  0.56824000  1
  N  N55  1  0.39040000  0.23662000  0.56824000  1
  N  N56  1  0.26180000  0.27745000  0.50910000  1
  N  N57  1  0.76180000  0.23165000  0.50910000  1
  N  N58  1  0.73820000  0.72255000  0.49090000  1
  N  N59  1  0.23820000  0.76835000  0.49090000  1
  N  N60  1  0.10960000  0.66838000  0.43176000  1
  N  N61  1  0.60960000  0.76338000  0.43176000  1
  N  N62  1  0.73880000  0.57409000  0.42378000  1
  N  N63  1  0.23880000  0.84969000  0.42378000  1
  N  N64  1  0.52390000  0.64577000  0.32454000  1
  N  N65  1  0.02390000  0.67877000  0.32454000  1
  N  N66  1  0.00890000  0.32391000  0.30082000  1
  N  N67  1  0.50890000  0.97691000  0.30082000  1
  N  N68  1  0.88030000  0.21959000  0.22718000  1
  N  N69  1  0.38030000  0.00759000  0.22718000  1
  N  N70  1  0.36680000  0.34225000  0.17630000  1
  N  N71  1  0.86680000  0.83405000  0.17630000  1
  N  N72  1  0.07080000  0.17116000  0.12652000  1
  N  N73  1  0.57080000  0.95536000  0.12652000  1
  N  N74  1  0.91680000  0.12878000  0.12296000  1
  N  N75  1  0.41680000  0.99418000  0.12296000  1
