# generated using pymatgen
data_CuH7C18ClO5
_symmetry_space_group_name_H-M   'P 1'
_cell_length_a   18.56760000
_cell_length_b   18.56760000
_cell_length_c   20.43860000
_cell_angle_alpha   62.98470000
_cell_angle_beta   62.98470000
_cell_angle_gamma   60.00000000
_symmetry_Int_Tables_number   1
_chemical_formula_structural   CuH7C18ClO5
_chemical_formula_sum   'Cu6 H42 C108 Cl6 O30'
_cell_volume   5195.56745002
_cell_formula_units_Z   6
loop_
 _symmetry_equiv_pos_site_id
 _symmetry_equiv_pos_as_xyz
  1  'x, y, z'
loop_
 _atom_site_type_symbol
 _atom_site_label
 _atom_site_symmetry_multiplicity
 _atom_site_fract_x
 _atom_site_fract_y
 _atom_site_fract_z
 _atom_site_occupancy
  Cu  Cu0  1  0.50346000  0.93155000  0.06222000  1
  Cu  Cu1  1  0.50277000  0.50346000  0.06222000  1
  Cu  Cu2  1  0.93155000  0.50277000  0.06222000  1
  Cu  Cu3  1  0.49654000  0.49723000  0.93778000  1
  Cu  Cu4  1  0.06845000  0.49654000  0.93778000  1
  Cu  Cu5  1  0.49723000  0.06845000  0.93778000  1
  H  H6  1  0.36340000  0.99350000  0.51430000  1
  H  H7  1  0.67710000  0.99150000  0.22290000  1
  H  H8  1  0.45720000  0.97950000  0.80170000  1
  H  H9  1  0.76490000  0.97610000  0.79750000  1
  H  H10  1  0.24220000  0.95840000  0.59830000  1
  H  H11  1  0.57740000  0.93820000  0.67120000  1
  H  H12  1  0.32290000  0.89150000  0.77710000  1
  H  H13  1  0.63660000  0.87120000  0.48570000  1
  H  H14  1  0.93820000  0.81320000  0.67120000  1
  H  H15  1  0.75780000  0.79890000  0.40170000  1
  H  H16  1  0.46480000  0.77250000  0.99070000  1
  H  H17  1  0.77250000  0.77200000  0.99070000  1
  H  H18  1  0.46150000  0.76490000  0.79750000  1
  H  H19  1  0.97950000  0.76160000  0.80170000  1
  H  H20  1  0.04160000  0.75780000  0.40170000  1
  H  H21  1  0.10850000  0.67710000  0.22290000  1
  H  H22  1  0.00650000  0.63660000  0.48570000  1
  H  H23  1  0.81320000  0.57740000  0.67120000  1
  H  H24  1  0.02050000  0.54280000  0.19830000  1
  H  H25  1  0.23510000  0.53850000  0.20250000  1
  H  H26  1  0.22750000  0.53520000  0.00930000  1
  H  H27  1  0.77200000  0.46480000  0.99070000  1
  H  H28  1  0.97610000  0.46150000  0.79750000  1
  H  H29  1  0.76160000  0.45720000  0.80170000  1
  H  H30  1  0.06180000  0.42260000  0.32880000  1
  H  H31  1  0.12880000  0.36340000  0.51430000  1
  H  H32  1  0.00850000  0.32290000  0.77710000  1
  H  H33  1  0.20110000  0.24220000  0.59830000  1
  H  H34  1  0.54280000  0.23840000  0.19830000  1
  H  H35  1  0.02390000  0.23510000  0.20250000  1
  H  H36  1  0.53520000  0.22800000  0.00930000  1
  H  H37  1  0.22800000  0.22750000  0.00930000  1
  H  H38  1  0.95840000  0.20110000  0.59830000  1
  H  H39  1  0.42260000  0.18680000  0.32880000  1
  H  H40  1  0.99350000  0.12880000  0.51430000  1
  H  H41  1  0.99150000  0.10850000  0.22290000  1
  H  H42  1  0.18680000  0.06180000  0.32880000  1
  H  H43  1  0.79890000  0.04160000  0.40170000  1
  H  H44  1  0.53850000  0.02390000  0.20250000  1
  H  H45  1  0.23840000  0.02050000  0.19830000  1
  H  H46  1  0.89150000  0.00850000  0.77710000  1
  H  H47  1  0.87120000  0.00650000  0.48570000  1
  C  C48  1  0.93301000  0.98911000  0.67417000  1
  C  C49  1  0.48854000  0.98454000  0.54508000  1
  C  C50  1  0.98454000  0.98184000  0.54508000  1
  C  C51  1  0.54897000  0.97507000  0.57349000  1
  C  C52  1  0.58414000  0.97484000  0.40458000  1
  C  C53  1  0.35532000  0.97302000  0.56704000  1
  C  C54  1  0.66898000  0.96748000  0.27546000  1
  C  C55  1  0.41586000  0.96356000  0.59542000  1
  C  C56  1  0.28260000  0.95190000  0.61750000  1
  C  C57  1  0.53682000  0.94452000  0.65224000  1
  C  C58  1  0.40371000  0.93301000  0.67417000  1
  C  C59  1  0.47379000  0.93139000  0.93793000  1
  C  C60  1  0.46424000  0.92344000  0.70258000  1
  C  C61  1  0.46082000  0.92222000  0.82564000  1
  C  C62  1  0.66085000  0.92195000  0.94195000  1
  C  C63  1  0.27050000  0.92150000  0.69610000  1
  C  C64  1  0.79469000  0.91929000  0.82273000  1
  C  C65  1  0.33102000  0.91192000  0.72454000  1
  C  C66  1  0.92344000  0.90974000  0.70258000  1
  C  C67  1  0.97507000  0.90247000  0.57349000  1
  C  C68  1  0.64468000  0.89538000  0.43296000  1
  C  C69  1  0.72950000  0.88810000  0.30390000  1
  C  C70  1  0.46321000  0.88411000  0.90007000  1
  C  C71  1  0.75138000  0.87868000  0.90406000  1
  C  C72  1  0.46353000  0.87683000  0.78451000  1
  C  C73  1  0.87683000  0.87513000  0.78451000  1
  C  C74  1  0.94452000  0.86642000  0.65224000  1
  C  C75  1  0.71740000  0.85200000  0.38250000  1
  C  C76  1  0.79734000  0.79844000  0.93958000  1
  C  C77  1  0.46464000  0.79734000  0.93958000  1
  C  C78  1  0.46329000  0.79469000  0.82273000  1
  C  C79  1  0.92222000  0.79132000  0.82564000  1
  C  C80  1  0.88411000  0.75261000  0.90007000  1
  C  C81  1  0.46588000  0.75138000  0.90406000  1
  C  C82  1  0.07850000  0.72950000  0.30390000  1
  C  C83  1  0.04810000  0.71740000  0.38250000  1
  C  C84  1  0.08808000  0.66898000  0.27546000  1
  C  C85  1  0.47525000  0.66085000  0.94195000  1
  C  C86  1  0.93139000  0.65689000  0.93793000  1
  C  C87  1  0.02698000  0.64468000  0.43296000  1
  C  C88  1  0.06699000  0.59629000  0.32583000  1
  C  C89  1  0.03644000  0.58414000  0.40458000  1
  C  C90  1  0.90247000  0.54897000  0.57349000  1
  C  C91  1  0.07778000  0.53918000  0.17436000  1
  C  C92  1  0.86642000  0.53682000  0.65224000  1
  C  C93  1  0.11589000  0.53679000  0.09993000  1
  C  C94  1  0.20531000  0.53671000  0.17727000  1
  C  C95  1  0.12317000  0.53647000  0.21549000  1
  C  C96  1  0.07656000  0.53576000  0.29742000  1
  C  C97  1  0.20266000  0.53536000  0.06042000  1
  C  C98  1  0.24862000  0.53412000  0.09594000  1
  C  C99  1  0.06861000  0.52621000  0.06207000  1
  C  C100  1  0.33915000  0.52475000  0.05805000  1
  C  C101  1  0.01546000  0.51146000  0.45492000  1
  C  C102  1  0.98184000  0.48854000  0.54508000  1
  C  C103  1  0.92195000  0.47525000  0.94195000  1
  C  C104  1  0.65689000  0.47379000  0.93793000  1
  C  C105  1  0.87868000  0.46588000  0.90406000  1
  C  C106  1  0.79844000  0.46464000  0.93958000  1
  C  C107  1  0.90974000  0.46424000  0.70258000  1
  C  C108  1  0.87513000  0.46353000  0.78451000  1
  C  C109  1  0.91929000  0.46329000  0.82273000  1
  C  C110  1  0.75261000  0.46321000  0.90007000  1
  C  C111  1  0.05548000  0.46318000  0.34776000  1
  C  C112  1  0.79132000  0.46082000  0.82564000  1
  C  C113  1  0.02493000  0.45103000  0.42651000  1
  C  C114  1  0.02516000  0.41586000  0.59542000  1
  C  C115  1  0.98911000  0.40371000  0.67417000  1
  C  C116  1  0.10462000  0.35532000  0.56704000  1
  C  C117  1  0.52621000  0.34311000  0.06207000  1
  C  C118  1  0.07805000  0.33915000  0.05805000  1
  C  C119  1  0.03252000  0.33102000  0.72454000  1
  C  C120  1  0.14800000  0.28260000  0.61750000  1
  C  C121  1  0.11190000  0.27050000  0.69610000  1
  C  C122  1  0.12132000  0.24862000  0.09594000  1
  C  C123  1  0.53679000  0.24739000  0.09993000  1
  C  C124  1  0.53918000  0.20868000  0.17436000  1
  C  C125  1  0.08071000  0.20531000  0.17727000  1
  C  C126  1  0.20156000  0.20266000  0.06042000  1
  C  C127  1  0.53536000  0.20156000  0.06042000  1
  C  C128  1  0.95190000  0.14800000  0.61750000  1
  C  C129  1  0.46318000  0.13358000  0.34776000  1
  C  C130  1  0.53647000  0.12487000  0.21549000  1
  C  C131  1  0.12487000  0.12317000  0.21549000  1
  C  C132  1  0.53412000  0.12132000  0.09594000  1
  C  C133  1  0.24739000  0.11589000  0.09993000  1
  C  C134  1  0.92150000  0.11190000  0.69610000  1
  C  C135  1  0.97302000  0.10462000  0.56704000  1
  C  C136  1  0.45103000  0.09753000  0.42651000  1
  C  C137  1  0.53576000  0.09026000  0.29742000  1
  C  C138  1  0.96748000  0.08808000  0.27546000  1
  C  C139  1  0.53671000  0.08071000  0.17727000  1
  C  C140  1  0.88810000  0.07850000  0.30390000  1
  C  C141  1  0.52475000  0.07805000  0.05805000  1
  C  C142  1  0.20868000  0.07778000  0.17436000  1
  C  C143  1  0.09026000  0.07656000  0.29742000  1
  C  C144  1  0.34311000  0.06861000  0.06207000  1
  C  C145  1  0.01089000  0.06699000  0.32583000  1
  C  C146  1  0.13358000  0.05548000  0.34776000  1
  C  C147  1  0.85200000  0.04810000  0.38250000  1
  C  C148  1  0.97484000  0.03644000  0.40458000  1
  C  C149  1  0.91192000  0.03252000  0.72454000  1
  C  C150  1  0.89538000  0.02698000  0.43296000  1
  C  C151  1  0.96356000  0.02516000  0.59542000  1
  C  C152  1  0.09753000  0.02493000  0.42651000  1
  C  C153  1  0.51146000  0.01816000  0.45492000  1
  C  C154  1  0.01816000  0.01546000  0.45492000  1
  C  C155  1  0.59629000  0.01089000  0.32583000  1
  Cl  Cl156  1  0.15220000  0.92630000  0.74980000  1
  Cl  Cl157  1  0.07370000  0.84780000  0.25020000  1
  Cl  Cl158  1  0.84780000  0.82830000  0.25020000  1
  Cl  Cl159  1  0.92630000  0.17170000  0.74980000  1
  Cl  Cl160  1  0.17170000  0.15220000  0.74980000  1
  Cl  Cl161  1  0.82830000  0.07370000  0.25020000  1
  O  O162  1  0.52670000  0.99780000  0.09840000  1
  O  O163  1  0.38092000  0.99632000  0.10044000  1
  O  O164  1  0.15190000  0.97840000  0.48030000  1
  O  O165  1  0.48122000  0.88682000  0.00534000  1
  O  O166  1  0.62756000  0.88676000  0.00462000  1
  O  O167  1  0.02160000  0.84810000  0.51970000  1
  O  O168  1  0.48106000  0.62756000  0.00462000  1
  O  O169  1  0.88682000  0.62662000  0.00534000  1
  O  O170  1  0.47330000  0.62290000  0.90160000  1
  O  O171  1  0.00368000  0.61908000  0.89956000  1
  O  O172  1  0.84810000  0.61060000  0.51970000  1
  O  O173  1  0.37710000  0.52670000  0.09840000  1
  O  O174  1  0.99632000  0.52232000  0.10044000  1
  O  O175  1  0.37244000  0.51894000  0.99538000  1
  O  O176  1  0.11318000  0.51878000  0.99466000  1
  O  O177  1  0.62662000  0.48122000  0.00534000  1
  O  O178  1  0.88676000  0.48106000  0.00462000  1
  O  O179  1  0.61908000  0.47768000  0.89956000  1
  O  O180  1  0.00220000  0.47330000  0.90160000  1
  O  O181  1  0.97840000  0.38940000  0.48030000  1
  O  O182  1  0.52232000  0.38092000  0.10044000  1
  O  O183  1  0.99780000  0.37710000  0.09840000  1
  O  O184  1  0.51878000  0.37338000  0.99466000  1
  O  O185  1  0.11324000  0.37244000  0.99538000  1
  O  O186  1  0.38940000  0.15190000  0.48030000  1
  O  O187  1  0.51894000  0.11324000  0.99538000  1
  O  O188  1  0.37338000  0.11318000  0.99466000  1
  O  O189  1  0.61060000  0.02160000  0.51970000  1
  O  O190  1  0.47768000  0.00368000  0.89956000  1
  O  O191  1  0.62290000  0.00220000  0.90160000  1
