# generated using pymatgen
data_MoPH4C4O3
_symmetry_space_group_name_H-M   'P 1'
_cell_length_a   9.00230000
_cell_length_b   10.61140000
_cell_length_c   11.69406674
_cell_angle_alpha   116.98167993
_cell_angle_beta   109.22605683
_cell_angle_gamma   90.00000000
_symmetry_Int_Tables_number   1
_chemical_formula_structural   MoPH4C4O3
_chemical_formula_sum   'Mo4 P4 H16 C16 O12'
_cell_volume   925.04671295
_cell_formula_units_Z   4
loop_
 _symmetry_equiv_pos_site_id
 _symmetry_equiv_pos_as_xyz
  1  'x, y, z'
loop_
 _atom_site_type_symbol
 _atom_site_label
 _atom_site_symmetry_multiplicity
 _atom_site_fract_x
 _atom_site_fract_y
 _atom_site_fract_z
 _atom_site_occupancy
  Mo  Mo0  1  0.76367000  0.11659000  0.53004000  1
  Mo  Mo1  1  0.73633000  0.58655000  0.46996000  1
  Mo  Mo2  1  0.26367000  0.41345000  0.53004000  1
  Mo  Mo3  1  0.23633000  0.88341000  0.46996000  1
  P  P4  1  0.96108000  0.90443000  0.61852000  1
  P  P5  1  0.53892000  0.28591000  0.38148000  1
  P  P6  1  0.46108000  0.71409000  0.61852000  1
  P  P7  1  0.03892000  0.09557000  0.38148000  1
  H  H8  1  0.96340000  0.83240000  0.06980000  1
  H  H9  1  0.95010000  0.23140000  0.11280000  1
  H  H10  1  0.85540000  0.17490000  0.25060000  1
  H  H11  1  0.79760000  0.00940000  0.19900000  1
  H  H12  1  0.70240000  0.81040000  0.80100000  1
  H  H13  1  0.64460000  0.92430000  0.74940000  1
  H  H14  1  0.54990000  0.11860000  0.88720000  1
  H  H15  1  0.53660000  0.76260000  0.93020000  1
  H  H16  1  0.46340000  0.23740000  0.06980000  1
  H  H17  1  0.45010000  0.88140000  0.11280000  1
  H  H18  1  0.35540000  0.07570000  0.25060000  1
  H  H19  1  0.29760000  0.18960000  0.19900000  1
  H  H20  1  0.20240000  0.99060000  0.80100000  1
  H  H21  1  0.14460000  0.82510000  0.74940000  1
  H  H22  1  0.04990000  0.76860000  0.88720000  1
  H  H23  1  0.03660000  0.16760000  0.93020000  1
  C  C24  1  0.97800000  0.90094000  0.04148000  1
  C  C25  1  0.97010000  0.13677000  0.06694000  1
  C  C26  1  0.94700000  0.03860000  0.10920000  1
  C  C27  1  0.89120000  0.08126000  0.22852000  1
  C  C28  1  0.60880000  0.85274000  0.77148000  1
  C  C29  1  0.55300000  0.92940000  0.89080000  1
  C  C30  1  0.52990000  0.06983000  0.93306000  1
  C  C31  1  0.52200000  0.85946000  0.95852000  1
  C  C32  1  0.47800000  0.14054000  0.04148000  1
  C  C33  1  0.47010000  0.93017000  0.06694000  1
  C  C34  1  0.44700000  0.07060000  0.10920000  1
  C  C35  1  0.39120000  0.14726000  0.22852000  1
  C  C36  1  0.10880000  0.91874000  0.77148000  1
  C  C37  1  0.05300000  0.96140000  0.89080000  1
  C  C38  1  0.02990000  0.86323000  0.93306000  1
  C  C39  1  0.02200000  0.09906000  0.95852000  1
  O  O40  1  0.97346000  0.14629000  0.49520000  1
  O  O41  1  0.91328000  0.05347000  0.65640000  1
  O  O42  1  0.81161000  0.79868000  0.57576000  1
  O  O43  1  0.68839000  0.22292000  0.42424000  1
  O  O44  1  0.58672000  0.39707000  0.34360000  1
  O  O45  1  0.52654000  0.65109000  0.50480000  1
  O  O46  1  0.47346000  0.34891000  0.49520000  1
  O  O47  1  0.41328000  0.60293000  0.65640000  1
  O  O48  1  0.31161000  0.77708000  0.57576000  1
  O  O49  1  0.18839000  0.20132000  0.42424000  1
  O  O50  1  0.08672000  0.94653000  0.34360000  1
  O  O51  1  0.02654000  0.85371000  0.50480000  1
