# generated using pymatgen
data_Mn3CrH21C15(N2O)6
_symmetry_space_group_name_H-M   'P 1'
_cell_length_a   8.14040000
_cell_length_b   13.60130000
_cell_length_c   13.60130000
_cell_angle_alpha   120.00000000
_cell_angle_beta   90.00000000
_cell_angle_gamma   90.00000000
_symmetry_Int_Tables_number   1
_chemical_formula_structural   Mn3CrH21C15(N2O)6
_chemical_formula_sum   'Mn6 Cr2 H42 C30 N24 O12'
_cell_volume   1304.17904231
_cell_formula_units_Z   2
loop_
 _symmetry_equiv_pos_site_id
 _symmetry_equiv_pos_as_xyz
  1  'x, y, z'
loop_
 _atom_site_type_symbol
 _atom_site_label
 _atom_site_symmetry_multiplicity
 _atom_site_fract_x
 _atom_site_fract_y
 _atom_site_fract_z
 _atom_site_occupancy
  Mn  Mn0  1  0.45684000  0.96113000  0.66497000  1
  Mn  Mn1  1  0.45684000  0.70384000  0.03887000  1
  Mn  Mn2  1  0.95684000  0.66497000  0.70384000  1
  Mn  Mn3  1  0.45684000  0.33503000  0.29616000  1
  Mn  Mn4  1  0.95684000  0.29616000  0.96113000  1
  Mn  Mn5  1  0.95684000  0.03887000  0.33503000  1
  Cr  Cr6  1  0.07358000  0.66666667  0.33333333  1
  Cr  Cr7  1  0.57358000  0.33333333  0.66666667  1
  H  H8  1  0.69400000  0.98200000  0.54150000  1
  H  H9  1  0.93880000  0.95470000  0.60240000  1
  H  H10  1  0.84610000  0.91550000  0.67810000  1
  H  H11  1  0.55730000  0.91470000  0.20110000  1
  H  H12  1  0.29070000  0.86520000  0.28680000  1
  H  H13  1  0.70220000  0.86520000  0.51730000  1
  H  H14  1  0.55090000  0.84720000  0.25750000  1
  H  H15  1  0.55730000  0.79890000  0.71360000  1
  H  H16  1  0.84610000  0.76260000  0.08450000  1
  H  H17  1  0.55090000  0.74250000  0.58970000  1
  H  H18  1  0.05730000  0.71360000  0.91470000  1
  H  H19  1  0.29070000  0.71320000  0.57840000  1
  H  H20  1  0.34610000  0.67810000  0.76260000  1
  H  H21  1  0.70220000  0.65210000  0.13480000  1
  H  H22  1  0.93880000  0.64770000  0.04530000  1
  H  H23  1  0.43880000  0.60240000  0.64770000  1
  H  H24  1  0.05090000  0.58970000  0.84720000  1
  H  H25  1  0.79070000  0.57840000  0.86520000  1
  H  H26  1  0.69400000  0.55950000  0.01800000  1
  H  H27  1  0.19400000  0.54150000  0.55950000  1
  H  H28  1  0.20220000  0.51730000  0.65210000  1
  H  H29  1  0.70220000  0.48270000  0.34790000  1
  H  H30  1  0.69400000  0.45850000  0.44050000  1
  H  H31  1  0.19400000  0.44050000  0.98200000  1
  H  H32  1  0.29070000  0.42160000  0.13480000  1
  H  H33  1  0.55090000  0.41030000  0.15280000  1
  H  H34  1  0.93880000  0.39760000  0.35230000  1
  H  H35  1  0.43880000  0.35230000  0.95470000  1
  H  H36  1  0.20220000  0.34790000  0.86520000  1
  H  H37  1  0.84610000  0.32190000  0.23740000  1
  H  H38  1  0.79070000  0.28680000  0.42160000  1
  H  H39  1  0.55730000  0.28640000  0.08530000  1
  H  H40  1  0.05090000  0.25750000  0.41030000  1
  H  H41  1  0.34610000  0.23740000  0.91550000  1
  H  H42  1  0.05730000  0.20110000  0.28640000  1
  H  H43  1  0.05090000  0.15280000  0.74250000  1
  H  H44  1  0.20220000  0.13480000  0.48270000  1
  H  H45  1  0.79070000  0.13480000  0.71320000  1
  H  H46  1  0.05730000  0.08530000  0.79890000  1
  H  H47  1  0.34610000  0.08450000  0.32190000  1
  H  H48  1  0.43880000  0.04530000  0.39760000  1
  H  H49  1  0.19400000  0.01800000  0.45850000  1
  C  C50  1  0.84050000  0.96610000  0.64720000  1
  C  C51  1  0.33490000  0.91030000  0.25490000  1
  C  C52  1  0.22010000  0.89190000  0.15890000  1
  C  C53  1  0.22010000  0.84110000  0.73300000  1
  C  C54  1  0.22380000  0.79850000  0.44360000  1
  C  C55  1  0.94440000  0.79130000  0.32080000  1
  C  C56  1  0.33490000  0.74510000  0.65540000  1
  C  C57  1  0.72010000  0.73300000  0.89190000  1
  C  C58  1  0.84050000  0.68110000  0.03390000  1
  C  C59  1  0.94440000  0.67920000  0.47050000  1
  C  C60  1  0.83490000  0.65540000  0.91030000  1
  C  C61  1  0.34050000  0.64720000  0.68110000  1
  C  C62  1  0.22380000  0.64510000  0.20150000  1
  C  C63  1  0.22380000  0.55640000  0.35490000  1
  C  C64  1  0.94440000  0.52950000  0.20870000  1
  C  C65  1  0.44440000  0.47050000  0.79130000  1
  C  C66  1  0.72380000  0.44360000  0.64510000  1
  C  C67  1  0.72380000  0.35490000  0.79850000  1
  C  C68  1  0.84050000  0.35280000  0.31890000  1
  C  C69  1  0.33490000  0.34460000  0.08970000  1
  C  C70  1  0.44440000  0.32080000  0.52950000  1
  C  C71  1  0.34050000  0.31890000  0.96610000  1
  C  C72  1  0.22010000  0.26700000  0.10810000  1
  C  C73  1  0.83490000  0.25490000  0.34460000  1
  C  C74  1  0.44440000  0.20870000  0.67920000  1
  C  C75  1  0.72380000  0.20150000  0.55640000  1
  C  C76  1  0.72010000  0.15890000  0.26700000  1
  C  C77  1  0.72010000  0.10810000  0.84110000  1
  C  C78  1  0.83490000  0.08970000  0.74510000  1
  C  C79  1  0.34050000  0.03390000  0.35280000  1
  N  N80  1  0.69450000  0.93790000  0.57350000  1
  N  N81  1  0.30890000  0.87120000  0.50450000  1
  N  N82  1  0.89570000  0.87020000  0.31870000  1
  N  N83  1  0.49730000  0.86390000  0.20980000  1
  N  N84  1  0.49730000  0.79020000  0.65410000  1
  N  N85  1  0.89570000  0.68130000  0.55150000  1
  N  N86  1  0.99730000  0.65410000  0.86390000  1
  N  N87  1  0.69450000  0.63560000  0.06210000  1
  N  N88  1  0.30890000  0.63330000  0.12880000  1
  N  N89  1  0.19450000  0.57350000  0.63560000  1
  N  N90  1  0.39570000  0.55150000  0.87020000  1
  N  N91  1  0.80890000  0.50450000  0.63330000  1
  N  N92  1  0.30890000  0.49550000  0.36670000  1
  N  N93  1  0.89570000  0.44850000  0.12980000  1
  N  N94  1  0.69450000  0.42650000  0.36440000  1
  N  N95  1  0.80890000  0.36670000  0.87120000  1
  N  N96  1  0.19450000  0.36440000  0.93790000  1
  N  N97  1  0.49730000  0.34590000  0.13610000  1
  N  N98  1  0.39570000  0.31870000  0.44850000  1
  N  N99  1  0.99730000  0.20980000  0.34590000  1
  N  N100  1  0.99730000  0.13610000  0.79020000  1
  N  N101  1  0.39570000  0.12980000  0.68130000  1
  N  N102  1  0.80890000  0.12880000  0.49550000  1
  N  N103  1  0.19450000  0.06210000  0.42650000  1
  O  O104  1  0.09570000  0.95360000  0.18090000  1
  O  O105  1  0.25360000  0.94150000  0.75500000  1
  O  O106  1  0.09570000  0.81910000  0.77270000  1
  O  O107  1  0.25360000  0.81350000  0.05850000  1
  O  O108  1  0.59570000  0.77270000  0.95360000  1
  O  O109  1  0.75360000  0.75500000  0.81350000  1
  O  O110  1  0.25360000  0.24500000  0.18650000  1
  O  O111  1  0.09570000  0.22730000  0.04640000  1
  O  O112  1  0.75360000  0.18650000  0.94150000  1
  O  O113  1  0.59570000  0.18090000  0.22730000  1
  O  O114  1  0.75360000  0.05850000  0.24500000  1
  O  O115  1  0.59570000  0.04640000  0.81910000  1
