# generated using pymatgen
data_FeH12(CN2)12
_symmetry_space_group_name_H-M   'P 1'
_cell_length_a   8.02670000
_cell_length_b   8.96090000
_cell_length_c   19.43070000
_cell_angle_alpha   90.00000000
_cell_angle_beta   90.00000000
_cell_angle_gamma   93.28600000
_symmetry_Int_Tables_number   1
_chemical_formula_structural   FeH12(CN2)12
_chemical_formula_sum   'Fe2 H24 C24 N48'
_cell_volume   1395.28355903
_cell_formula_units_Z   2
loop_
 _symmetry_equiv_pos_site_id
 _symmetry_equiv_pos_as_xyz
  1  'x, y, z'
loop_
 _atom_site_type_symbol
 _atom_site_label
 _atom_site_symmetry_multiplicity
 _atom_site_fract_x
 _atom_site_fract_y
 _atom_site_fract_z
 _atom_site_occupancy
  Fe  Fe0  1  0.00000000  0.00000000  0.00000000  1
  Fe  Fe1  1  0.50000000  0.50000000  0.50000000  1
  H  H2  1  0.96800000  0.79740000  0.13270000  1
  H  H3  1  0.96210000  0.35170000  0.35110000  1
  H  H4  1  0.95850000  0.83440000  0.85790000  1
  H  H5  1  0.95500000  0.36690000  0.65700000  1
  H  H6  1  0.88990000  0.64020000  0.50080000  1
  H  H7  1  0.82520000  0.46640000  0.99130000  1
  H  H8  1  0.67480000  0.03360000  0.49130000  1
  H  H9  1  0.61010000  0.85980000  0.00080000  1
  H  H10  1  0.54500000  0.13310000  0.15700000  1
  H  H11  1  0.54150000  0.66560000  0.35790000  1
  H  H12  1  0.53790000  0.14830000  0.85110000  1
  H  H13  1  0.53200000  0.70260000  0.63270000  1
  H  H14  1  0.46800000  0.29740000  0.36730000  1
  H  H15  1  0.46210000  0.85170000  0.14890000  1
  H  H16  1  0.45850000  0.33440000  0.64210000  1
  H  H17  1  0.45500000  0.86690000  0.84300000  1
  H  H18  1  0.38990000  0.14020000  0.99920000  1
  H  H19  1  0.32520000  0.96640000  0.50870000  1
  H  H20  1  0.17480000  0.53360000  0.00870000  1
  H  H21  1  0.11010000  0.35980000  0.49920000  1
  H  H22  1  0.04500000  0.63310000  0.34300000  1
  H  H23  1  0.04150000  0.16560000  0.14210000  1
  H  H24  1  0.03790000  0.64830000  0.64890000  1
  H  H25  1  0.03200000  0.20260000  0.86730000  1
  C  C26  1  0.92670000  0.14310000  0.13250000  1
  C  C27  1  0.91820000  0.17460000  0.87640000  1
  C  C28  1  0.85150000  0.35520000  0.36810000  1
  C  C29  1  0.84470000  0.37440000  0.64010000  1
  C  C30  1  0.80980000  0.57070000  0.99320000  1
  C  C31  1  0.80930000  0.71360000  0.49840000  1
  C  C32  1  0.69070000  0.78640000  0.99840000  1
  C  C33  1  0.69020000  0.92930000  0.49320000  1
  C  C34  1  0.65530000  0.12560000  0.14010000  1
  C  C35  1  0.64850000  0.14480000  0.86810000  1
  C  C36  1  0.58180000  0.32540000  0.37640000  1
  C  C37  1  0.57330000  0.35690000  0.63250000  1
  C  C38  1  0.42670000  0.64310000  0.36750000  1
  C  C39  1  0.41820000  0.67460000  0.62360000  1
  C  C40  1  0.35150000  0.85520000  0.13190000  1
  C  C41  1  0.34470000  0.87440000  0.85990000  1
  C  C42  1  0.30980000  0.07070000  0.50680000  1
  C  C43  1  0.30930000  0.21360000  0.00160000  1
  C  C44  1  0.19070000  0.28640000  0.50160000  1
  C  C45  1  0.19020000  0.42930000  0.00680000  1
  C  C46  1  0.15530000  0.62560000  0.35990000  1
  C  C47  1  0.14850000  0.64480000  0.63190000  1
  C  C48  1  0.08180000  0.82540000  0.12360000  1
  C  C49  1  0.07330000  0.85690000  0.86750000  1
  N  N50  1  0.99710000  0.06910000  0.50080000  1
  N  N51  1  0.92890000  0.67500000  0.99320000  1
  N  N52  1  0.86720000  0.08060000  0.07640000  1
  N  N53  1  0.86350000  0.09550000  0.92890000  1
  N  N54  1  0.85280000  0.81240000  0.99670000  1
  N  N55  1  0.84220000  0.86580000  0.49630000  1
  N  N56  1  0.82240000  0.23250000  0.24020000  1
  N  N57  1  0.81150000  0.27420000  0.77230000  1
  N  N58  1  0.81070000  0.42260000  0.42400000  1
  N  N59  1  0.80660000  0.42910000  0.58080000  1
  N  N60  1  0.79820000  0.17080000  0.17480000  1
  N  N61  1  0.78710000  0.21040000  0.83700000  1
  N  N62  1  0.71290000  0.28960000  0.33700000  1
  N  N63  1  0.70180000  0.32920000  0.67480000  1
  N  N64  1  0.69340000  0.07090000  0.08080000  1
  N  N65  1  0.68930000  0.07740000  0.92400000  1
  N  N66  1  0.68850000  0.22580000  0.27230000  1
  N  N67  1  0.67760000  0.26750000  0.74020000  1
  N  N68  1  0.65780000  0.63420000  0.99630000  1
  N  N69  1  0.64720000  0.68760000  0.49670000  1
  N  N70  1  0.63650000  0.40450000  0.42890000  1
  N  N71  1  0.63280000  0.41940000  0.57640000  1
  N  N72  1  0.57110000  0.82500000  0.49320000  1
  N  N73  1  0.50290000  0.43090000  0.00080000  1
  N  N74  1  0.49710000  0.56910000  0.99920000  1
  N  N75  1  0.42890000  0.17500000  0.50680000  1
  N  N76  1  0.36720000  0.58060000  0.42360000  1
  N  N77  1  0.36350000  0.59550000  0.57110000  1
  N  N78  1  0.35280000  0.31240000  0.50330000  1
  N  N79  1  0.34220000  0.36580000  0.00370000  1
  N  N80  1  0.32240000  0.73250000  0.25980000  1
  N  N81  1  0.31150000  0.77420000  0.72770000  1
  N  N82  1  0.31070000  0.92260000  0.07600000  1
  N  N83  1  0.30660000  0.92910000  0.91920000  1
  N  N84  1  0.29820000  0.67080000  0.32520000  1
  N  N85  1  0.28710000  0.71040000  0.66300000  1
  N  N86  1  0.21290000  0.78960000  0.16300000  1
  N  N87  1  0.20180000  0.82920000  0.82520000  1
  N  N88  1  0.19340000  0.57090000  0.41920000  1
  N  N89  1  0.18930000  0.57740000  0.57600000  1
  N  N90  1  0.18850000  0.72580000  0.22770000  1
  N  N91  1  0.17760000  0.76750000  0.75980000  1
  N  N92  1  0.15780000  0.13420000  0.50370000  1
  N  N93  1  0.14720000  0.18760000  0.00330000  1
  N  N94  1  0.13650000  0.90450000  0.07110000  1
  N  N95  1  0.13280000  0.91940000  0.92360000  1
  N  N96  1  0.07110000  0.32500000  0.00680000  1
  N  N97  1  0.00290000  0.93090000  0.49920000  1
