# generated using pymatgen
data_TmH3C7NO4
_symmetry_space_group_name_H-M   'P 1'
_cell_length_a   16.14380000
_cell_length_b   17.36976022
_cell_length_c   17.36976022
_cell_angle_alpha   77.52842038
_cell_angle_beta   62.30854937
_cell_angle_gamma   62.30854937
_symmetry_Int_Tables_number   1
_chemical_formula_structural   TmH3C7NO4
_chemical_formula_sum   'Tm8 H24 C56 N8 O32'
_cell_volume   3818.86432947
_cell_formula_units_Z   8
loop_
 _symmetry_equiv_pos_site_id
 _symmetry_equiv_pos_as_xyz
  1  'x, y, z'
loop_
 _atom_site_type_symbol
 _atom_site_label
 _atom_site_symmetry_multiplicity
 _atom_site_fract_x
 _atom_site_fract_y
 _atom_site_fract_z
 _atom_site_occupancy
  C  C0  1  0.83870000  0.55810000  0.37930000  1
  C  C1  1  0.22390000  0.05810000  0.87930000  1
  C  C2  1  0.72530000  0.47940000  0.41780000  1
  C  C3  1  0.37750000  0.97940000  0.91780000  1
  C  C4  1  0.81150000  0.49220000  0.36300000  1
  C  C5  1  0.33330000  0.99220000  0.86300000  1
  C  C6  1  0.70780000  0.42210000  0.39410000  1
  C  C7  1  0.47600000  0.92210000  0.89410000  1
  C  C8  1  0.77420000  0.37780000  0.31620000  1
  C  C9  1  0.53180000  0.87780000  0.81620000  1
  C  C10  1  0.10320000  0.62070000  0.05810000  1
  C  C11  1  0.21800000  0.12070000  0.55810000  1
  C  C12  1  0.21030000  0.82040000  0.84880000  1
  C  C13  1  0.12050000  0.32040000  0.34880000  1
  C  C14  1  0.85930000  0.39270000  0.26590000  1
  C  C15  1  0.48210000  0.89270000  0.76590000  1
  C  C16  1  0.19630000  0.63700000  0.99220000  1
  C  C17  1  0.17450000  0.13700000  0.49220000  1
  C  C18  1  0.24800000  0.73410000  0.89270000  1
  C  C19  1  0.12520000  0.23410000  0.39270000  1
  C  C20  1  0.34800000  0.68380000  0.87780000  1
  C  C21  1  0.29530000  0.58220000  0.97940000  1
  C  C22  1  0.09040000  0.18380000  0.37780000  1
  C  C23  1  0.14310000  0.08220000  0.47940000  1
  C  C24  1  0.94090000  0.34880000  0.17960000  1
  C  C25  1  0.53070000  0.84880000  0.67960000  1
  C  C26  1  0.37010000  0.60590000  0.92210000  1
  C  C27  1  0.10190000  0.10590000  0.42210000  1
  C  C28  1  0.62990000  0.39410000  0.07790000  1
  C  C29  1  0.89810000  0.89410000  0.57790000  1
  C  C30  1  0.05910000  0.65120000  0.82040000  1
  C  C31  1  0.46930000  0.15120000  0.32040000  1
  C  C32  1  0.70470000  0.41780000  0.02060000  1
  C  C33  1  0.65200000  0.31620000  0.12220000  1
  C  C34  1  0.85690000  0.91780000  0.52060000  1
  C  C35  1  0.90960000  0.81620000  0.62220000  1
  C  C36  1  0.75200000  0.26590000  0.10730000  1
  C  C37  1  0.87480000  0.76590000  0.60730000  1
  C  C38  1  0.80370000  0.36300000  0.00780000  1
  C  C39  1  0.82550000  0.86300000  0.50780000  1
  C  C40  1  0.14070000  0.60730000  0.73410000  1
  C  C41  1  0.51790000  0.10730000  0.23410000  1
  C  C42  1  0.78970000  0.17960000  0.15120000  1
  C  C43  1  0.87950000  0.67960000  0.65120000  1
  C  C44  1  0.89680000  0.37930000  0.94190000  1
  C  C45  1  0.78200000  0.87930000  0.44190000  1
  C  C46  1  0.22580000  0.62220000  0.68380000  1
  C  C47  1  0.46820000  0.12220000  0.18380000  1
  C  C48  1  0.29220000  0.57790000  0.60590000  1
  C  C49  1  0.52400000  0.07790000  0.10590000  1
  C  C50  1  0.18850000  0.50780000  0.63700000  1
  C  C51  1  0.66670000  0.00780000  0.13700000  1
  C  C52  1  0.27470000  0.52060000  0.58220000  1
  C  C53  1  0.62250000  0.02060000  0.08220000  1
  C  C54  1  0.16130000  0.44190000  0.62070000  1
  C  C55  1  0.77610000  0.94190000  0.12070000  1
  H  H56  1  0.68000000  0.50960000  0.47020000  1
  H  H57  1  0.34020000  0.00960000  0.97020000  1
  H  H58  1  0.50750000  0.91190000  0.93090000  1
  H  H59  1  0.64970000  0.41190000  0.43090000  1
  H  H60  1  0.76090000  0.33920000  0.29900000  1
  H  H61  1  0.60090000  0.83920000  0.79900000  1
  H  H62  1  0.39990000  0.70100000  0.83920000  1
  H  H63  1  0.05990000  0.20100000  0.33920000  1
  H  H64  1  0.31040000  0.52980000  0.00960000  1
  H  H65  1  0.15020000  0.02980000  0.50960000  1
  H  H66  1  0.56160000  0.43090000  0.08810000  1
  H  H67  1  0.91940000  0.93090000  0.58810000  1
  H  H68  1  0.43840000  0.56910000  0.91190000  1
  H  H69  1  0.08060000  0.06910000  0.41190000  1
  H  H70  1  0.68960000  0.47020000  0.99040000  1
  H  H71  1  0.84980000  0.97020000  0.49040000  1
  H  H72  1  0.60010000  0.29900000  0.16080000  1
  H  H73  1  0.94010000  0.79900000  0.66080000  1
  H  H74  1  0.23910000  0.66080000  0.70100000  1
  H  H75  1  0.39910000  0.16080000  0.20100000  1
  H  H76  1  0.49250000  0.08810000  0.06910000  1
  H  H77  1  0.35030000  0.58810000  0.56910000  1
  H  H78  1  0.32000000  0.49040000  0.52980000  1
  H  H79  1  0.65980000  0.99040000  0.02980000  1
  N  N80  1  0.87890000  0.44870000  0.28890000  1
  N  N81  1  0.38350000  0.94870000  0.78890000  1
  N  N82  1  0.17240000  0.71110000  0.94870000  1
  N  N83  1  0.16780000  0.21110000  0.44870000  1
  N  N84  1  0.82760000  0.28890000  0.05130000  1
  N  N85  1  0.83220000  0.78890000  0.55130000  1
  N  N86  1  0.12110000  0.55130000  0.71110000  1
  N  N87  1  0.61650000  0.05130000  0.21110000  1
  O  O88  1  0.82750000  0.89300000  0.05740000  1
  O  O89  1  0.22210000  0.39300000  0.55740000  1
  O  O90  1  0.92740000  0.55620000  0.32440000  1
  O  O91  1  0.19200000  0.05620000  0.82440000  1
  O  O92  1  0.01640000  0.67560000  0.05620000  1
  O  O93  1  0.25180000  0.17560000  0.55620000  1
  O  O94  1  0.11440000  0.85570000  0.86670000  1
  O  O95  1  0.16320000  0.35570000  0.36670000  1
  O  O96  1  0.11510000  0.55740000  0.10700000  1
  O  O97  1  0.22050000  0.05740000  0.60700000  1
  O  O98  1  0.08020000  0.34960000  0.29720000  1
  O  O99  1  0.27300000  0.84960000  0.79720000  1
  O  O100  1  0.07020000  0.70280000  0.84960000  1
  O  O101  1  0.37740000  0.20280000  0.34960000  1
  O  O102  1  0.01890000  0.36670000  0.14430000  1
  O  O103  1  0.47010000  0.86670000  0.64430000  1
  O  O104  1  0.98110000  0.63330000  0.85570000  1
  O  O105  1  0.52990000  0.13330000  0.35570000  1
  O  O106  1  0.92980000  0.29720000  0.15040000  1
  O  O107  1  0.62260000  0.79720000  0.65040000  1
  O  O108  1  0.91980000  0.65040000  0.70280000  1
  O  O109  1  0.72700000  0.15040000  0.20280000  1
  O  O110  1  0.88490000  0.44260000  0.89300000  1
  O  O111  1  0.77950000  0.94260000  0.39300000  1
  O  O112  1  0.88560000  0.14430000  0.13330000  1
  O  O113  1  0.83680000  0.64430000  0.63330000  1
  O  O114  1  0.98360000  0.32440000  0.94380000  1
  O  O115  1  0.74820000  0.82440000  0.44380000  1
  O  O116  1  0.07260000  0.44380000  0.67560000  1
  O  O117  1  0.80800000  0.94380000  0.17560000  1
  O  O118  1  0.17250000  0.10700000  0.94260000  1
  O  O119  1  0.77790000  0.60700000  0.44260000  1
  Tm  Tm120  1  0.99399000  0.79639000  0.96771000  1
  Tm  Tm121  1  0.24191000  0.29639000  0.46771000  1
  Tm  Tm122  1  0.03830000  0.46771000  0.20361000  1
  Tm  Tm123  1  0.29038000  0.96771000  0.70361000  1
  Tm  Tm124  1  0.96170000  0.53229000  0.79639000  1
  Tm  Tm125  1  0.70962000  0.03229000  0.29639000  1
  Tm  Tm126  1  0.00601000  0.20361000  0.03229000  1
  Tm  Tm127  1  0.75809000  0.70361000  0.53229000  1
