# generated using pymatgen
data_AgH12(C3N)6
_symmetry_space_group_name_H-M   'P 1'
_cell_length_a   13.72568015
_cell_length_b   13.72568015
_cell_length_c   24.58739207
_cell_angle_alpha   101.40532294
_cell_angle_beta   101.34140702
_cell_angle_gamma   107.06694606
_symmetry_Int_Tables_number   1
_chemical_formula_structural   AgH12(C3N)6
_chemical_formula_sum   'Ag8 H96 C144 N48'
_cell_volume   4177.29348768
_cell_formula_units_Z   8
loop_
 _symmetry_equiv_pos_site_id
 _symmetry_equiv_pos_as_xyz
  1  'x, y, z'
loop_
 _atom_site_type_symbol
 _atom_site_label
 _atom_site_symmetry_multiplicity
 _atom_site_fract_x
 _atom_site_fract_y
 _atom_site_fract_z
 _atom_site_occupancy
  Ag  Ag0  1  0.19927000  0.51856000  0.63233000  1
  Ag  Ag1  1  0.11377000  0.93306000  0.13233000  1
  Ag  Ag2  1  0.42679000  0.70498000  0.63259000  1
  Ag  Ag3  1  0.92761000  0.70580000  0.13259000  1
  Ag  Ag4  1  0.57321000  0.29502000  0.36741000  1
  Ag  Ag5  1  0.07239000  0.29420000  0.86741000  1
  Ag  Ag6  1  0.80073000  0.48144000  0.36767000  1
  Ag  Ag7  1  0.88623000  0.06694000  0.86767000  1
  C  C8  1  0.42612000  0.33037000  0.90749000  1
  C  C9  1  0.57712000  0.98137000  0.40749000  1
  C  C10  1  0.38476000  0.37735000  0.99671000  1
  C  C11  1  0.61936000  0.11195000  0.49671000  1
  C  C12  1  0.18983000  0.13789000  0.00012000  1
  C  C13  1  0.86223000  0.31029000  0.50012000  1
  C  C14  1  0.17202000  0.73456000  0.61558000  1
  C  C15  1  0.88102000  0.94356000  0.11558000  1
  C  C16  1  0.45718000  0.35962000  0.96740000  1
  C  C17  1  0.60778000  0.01022000  0.46740000  1
  C  C18  1  0.22090000  0.06629000  0.91119000  1
  C  C19  1  0.84490000  0.19029000  0.41119000  1
  C  C20  1  0.15762000  0.62070000  0.53052000  1
  C  C21  1  0.90982000  0.87290000  0.03052000  1
  C  C22  1  0.43827000  0.94406000  0.62033000  1
  C  C23  1  0.67627000  0.68206000  0.12033000  1
  C  C24  1  0.39974000  0.81955000  0.53449000  1
  C  C25  1  0.71494000  0.63475000  0.03449000  1
  C  C26  1  0.25768000  0.10858000  0.97046000  1
  C  C27  1  0.86188000  0.21278000  0.47046000  1
  C  C28  1  0.56563000  0.37307000  0.00150000  1
  C  C29  1  0.62843000  0.93587000  0.50150000  1
  C  C30  1  0.36640000  0.12128000  0.00268000  1
  C  C31  1  0.88140000  0.13628000  0.50268000  1
  C  C32  1  0.37590000  0.78441000  0.75531000  1
  C  C33  1  0.97090000  0.87941000  0.25531000  1
  C  C34  1  0.21449000  0.89234000  0.02563000  1
  C  C35  1  0.13329000  0.31114000  0.52563000  1
  C  C36  1  0.63410000  0.46103000  0.18173000  1
  C  C37  1  0.72070000  0.04763000  0.68173000  1
  C  C38  1  0.67699000  0.90725000  0.58844000  1
  C  C39  1  0.68119000  0.41145000  0.08844000  1
  C  C40  1  0.63158000  0.77480000  0.50718000  1
  C  C41  1  0.73238000  0.37560000  0.00718000  1
  C  C42  1  0.57785000  0.62468000  0.41853000  1
  C  C43  1  0.79385000  0.34068000  0.91853000  1
  C  C44  1  0.37110000  0.50667000  0.52037000  1
  C  C45  1  0.01370000  0.64927000  0.02037000  1
  C  C46  1  0.20110000  0.06981000  0.25711000  1
  C  C47  1  0.18730000  0.55601000  0.75711000  1
  C  C48  1  0.39330000  0.81006000  0.81436000  1
  C  C49  1  0.00430000  0.92106000  0.31436000  1
  C  C50  1  0.28592000  0.87776000  0.99488000  1
  C  C51  1  0.11712000  0.20896000  0.49488000  1
  C  C52  1  0.59301000  0.09893000  0.91534000  1
  C  C53  1  0.81641000  0.82233000  0.41534000  1
  C  C54  1  0.53330000  0.12702000  0.00572000  1
  C  C55  1  0.87870000  0.97242000  0.50572000  1
  C  C56  1  0.48339000  0.15193000  0.08792000  1
  C  C57  1  0.93599000  0.10453000  0.58792000  1
  C  C58  1  0.65840000  0.47874000  0.24074000  1
  C  C59  1  0.76200000  0.08234000  0.74074000  1
  C  C60  1  0.70353000  0.43418000  0.15211000  1
  C  C61  1  0.71793000  0.94858000  0.65211000  1
  C  C62  1  0.42730000  0.17561000  0.17851000  1
  C  C63  1  0.00290000  0.25121000  0.67851000  1
  C  C64  1  0.61542000  0.66311000  0.47813000  1
  C  C65  1  0.81502000  0.36271000  0.97813000  1
  C  C66  1  0.56900000  0.52247000  0.39247000  1
  C  C67  1  0.87000000  0.32347000  0.89247000  1
  C  C68  1  0.35940000  0.40485000  0.49045000  1
  C  C69  1  0.08560000  0.63105000  0.99045000  1
  C  C70  1  0.24090000  0.11076000  0.31626000  1
  C  C71  1  0.20550000  0.57536000  0.81626000  1
  C  C72  1  0.66918000  0.08598000  0.88856000  1
  C  C73  1  0.80258000  0.71938000  0.38856000  1
  C  C74  1  0.61436000  0.11666000  0.97502000  1
  C  C75  1  0.85836000  0.86066000  0.47502000  1
  C  C76  1  0.50671000  0.17301000  0.15192000  1
  C  C77  1  0.97891000  0.14521000  0.65192000  1
  C  C78  1  0.45150000  0.20054000  0.23784000  1
  C  C79  1  0.03730000  0.28634000  0.73784000  1
  C  C80  1  0.54850000  0.79946000  0.76216000  1
  C  C81  1  0.96270000  0.71366000  0.26216000  1
  C  C82  1  0.49329000  0.82699000  0.84808000  1
  C  C83  1  0.02109000  0.85479000  0.34808000  1
  C  C84  1  0.38564000  0.88334000  0.02498000  1
  C  C85  1  0.14164000  0.13934000  0.52498000  1
  C  C86  1  0.33082000  0.91402000  0.11144000  1
  C  C87  1  0.19742000  0.28062000  0.61144000  1
  C  C88  1  0.75910000  0.88924000  0.68374000  1
  C  C89  1  0.79450000  0.42464000  0.18374000  1
  C  C90  1  0.64060000  0.59515000  0.50955000  1
  C  C91  1  0.91440000  0.36895000  0.00955000  1
  C  C92  1  0.43100000  0.47753000  0.60753000  1
  C  C93  1  0.13000000  0.67653000  0.10753000  1
  C  C94  1  0.38458000  0.33689000  0.52187000  1
  C  C95  1  0.18498000  0.63729000  0.02187000  1
  C  C96  1  0.57270000  0.82439000  0.82149000  1
  C  C97  1  0.99710000  0.74879000  0.32149000  1
  C  C98  1  0.29647000  0.56582000  0.84789000  1
  C  C99  1  0.28207000  0.05142000  0.34789000  1
  C  C100  1  0.34160000  0.52126000  0.75926000  1
  C  C101  1  0.23800000  0.91766000  0.25926000  1
  C  C102  1  0.51661000  0.84807000  0.91208000  1
  C  C103  1  0.06401000  0.89547000  0.41208000  1
  C  C104  1  0.46670000  0.87298000  0.99428000  1
  C  C105  1  0.12130000  0.02758000  0.49428000  1
  C  C106  1  0.40699000  0.90107000  0.08466000  1
  C  C107  1  0.18359000  0.17767000  0.58466000  1
  C  C108  1  0.71408000  0.12224000  0.00512000  1
  C  C109  1  0.88288000  0.79104000  0.50512000  1
  C  C110  1  0.60670000  0.18994000  0.18564000  1
  C  C111  1  0.99570000  0.07894000  0.68564000  1
  C  C112  1  0.79890000  0.93019000  0.74289000  1
  C  C113  1  0.81270000  0.44399000  0.24289000  1
  C  C114  1  0.62890000  0.49333000  0.47963000  1
  C  C115  1  0.98630000  0.35073000  0.97963000  1
  C  C116  1  0.42215000  0.37532000  0.58147000  1
  C  C117  1  0.20615000  0.65932000  0.08147000  1
  C  C118  1  0.36842000  0.22520000  0.49282000  1
  C  C119  1  0.26762000  0.62440000  0.99282000  1
  C  C120  1  0.32301000  0.09275000  0.41156000  1
  C  C121  1  0.31881000  0.58855000  0.91156000  1
  C  C122  1  0.36590000  0.53897000  0.81827000  1
  C  C123  1  0.27930000  0.95237000  0.31827000  1
  C  C124  1  0.78551000  0.10766000  0.97437000  1
  C  C125  1  0.86671000  0.68886000  0.47437000  1
  C  C126  1  0.62410000  0.21559000  0.24469000  1
  C  C127  1  0.02910000  0.12059000  0.74469000  1
  C  C128  1  0.63360000  0.87872000  0.99732000  1
  C  C129  1  0.11860000  0.86372000  0.49732000  1
  C  C130  1  0.43437000  0.62693000  0.99850000  1
  C  C131  1  0.37157000  0.06413000  0.49850000  1
  C  C132  1  0.74232000  0.89142000  0.02954000  1
  C  C133  1  0.13812000  0.78722000  0.52954000  1
  C  C134  1  0.60026000  0.18045000  0.46551000  1
  C  C135  1  0.28506000  0.36525000  0.96551000  1
  C  C136  1  0.56173000  0.05594000  0.37967000  1
  C  C137  1  0.32373000  0.31794000  0.87967000  1
  C  C138  1  0.84238000  0.37930000  0.46948000  1
  C  C139  1  0.09018000  0.12710000  0.96948000  1
  C  C140  1  0.77910000  0.93371000  0.08881000  1
  C  C141  1  0.15510000  0.80971000  0.58881000  1
  C  C142  1  0.54282000  0.64038000  0.03260000  1
  C  C143  1  0.39222000  0.98978000  0.53260000  1
  C  C144  1  0.82798000  0.26544000  0.38442000  1
  C  C145  1  0.11898000  0.05644000  0.88442000  1
  C  C146  1  0.81017000  0.86211000  0.99988000  1
  C  C147  1  0.13777000  0.68971000  0.49988000  1
  C  C148  1  0.61524000  0.62265000  0.00329000  1
  C  C149  1  0.38064000  0.88805000  0.50329000  1
  C  C150  1  0.57388000  0.66963000  0.09251000  1
  C  C151  1  0.42288000  0.01863000  0.59251000  1
  H  H152  1  0.47340000  0.31960000  0.88660000  1
  H  H153  1  0.56700000  0.91320000  0.38660000  1
  H  H154  1  0.40330000  0.39710000  0.03680000  1
  H  H155  1  0.63970000  0.13350000  0.53680000  1
  H  H156  1  0.18110000  0.74910000  0.65520000  1
  H  H157  1  0.21160000  0.16440000  0.04000000  1
  H  H158  1  0.87560000  0.32840000  0.54000000  1
  H  H159  1  0.90610000  0.97410000  0.15520000  1
  H  H160  1  0.26390000  0.04510000  0.89000000  1
  H  H161  1  0.84490000  0.12610000  0.39000000  1
  H  H162  1  0.15840000  0.55620000  0.51040000  1
  H  H163  1  0.95420000  0.85200000  0.01040000  1
  H  H164  1  0.45680000  0.96320000  0.66040000  1
  H  H165  1  0.69720000  0.70360000  0.16040000  1
  H  H166  1  0.39290000  0.75190000  0.51440000  1
  H  H167  1  0.76250000  0.62150000  0.01440000  1
  H  H168  1  0.14860000  0.88940000  0.00520000  1
  H  H169  1  0.11580000  0.35660000  0.50520000  1
  H  H170  1  0.57200000  0.46700000  0.16180000  1
  H  H171  1  0.69480000  0.08980000  0.66180000  1
  H  H172  1  0.30810000  0.77150000  0.73280000  1
  H  H173  1  0.96130000  0.92470000  0.23280000  1
  H  H174  1  0.55890000  0.66730000  0.39640000  1
  H  H175  1  0.72910000  0.33750000  0.89640000  1
  H  H176  1  0.17450000  0.11030000  0.23620000  1
  H  H177  1  0.12590000  0.56170000  0.73620000  1
  H  H178  1  0.35440000  0.55180000  0.49940000  1
  H  H179  1  0.94760000  0.64500000  0.99940000  1
  H  H180  1  0.52780000  0.09580000  0.89380000  1
  H  H181  1  0.79800000  0.86600000  0.39380000  1
  H  H182  1  0.33940000  0.81590000  0.83110000  1
  H  H183  1  0.35850000  0.16060000  0.15670000  1
  H  H184  1  0.99610000  0.29820000  0.65670000  1
  H  H185  1  0.01520000  0.99170000  0.33110000  1
  H  H186  1  0.26770000  0.86450000  0.95500000  1
  H  H187  1  0.09050000  0.18730000  0.45500000  1
  H  H188  1  0.61180000  0.49720000  0.26000000  1
  H  H189  1  0.76280000  0.14820000  0.76000000  1
  H  H190  1  0.24020000  0.17670000  0.33450000  1
  H  H191  1  0.15780000  0.59430000  0.83450000  1
  H  H192  1  0.54400000  0.49790000  0.35250000  1
  H  H193  1  0.85460000  0.30850000  0.85250000  1
  H  H194  1  0.33550000  0.38250000  0.45040000  1
  H  H195  1  0.06790000  0.61490000  0.95040000  1
  H  H196  1  0.65360000  0.07440000  0.84880000  1
  H  H197  1  0.77440000  0.69520000  0.34880000  1
  H  H198  1  0.39750000  0.20180000  0.25530000  1
  H  H199  1  0.05350000  0.35780000  0.75530000  1
  H  H200  1  0.60250000  0.79820000  0.74470000  1
  H  H201  1  0.94650000  0.64220000  0.24470000  1
  H  H202  1  0.34640000  0.92560000  0.15120000  1
  H  H203  1  0.22560000  0.30480000  0.65120000  1
  H  H204  1  0.66450000  0.61750000  0.54960000  1
  H  H205  1  0.93210000  0.38510000  0.04960000  1
  H  H206  1  0.45600000  0.50210000  0.64750000  1
  H  H207  1  0.14540000  0.69150000  0.14750000  1
  H  H208  1  0.75980000  0.82330000  0.66550000  1
  H  H209  1  0.84220000  0.40570000  0.16550000  1
  H  H210  1  0.38820000  0.50280000  0.74000000  1
  H  H211  1  0.23720000  0.85180000  0.24000000  1
  H  H212  1  0.73230000  0.13550000  0.04500000  1
  H  H213  1  0.90950000  0.81270000  0.54500000  1
  H  H214  1  0.64150000  0.83940000  0.84330000  1
  H  H215  1  0.66060000  0.18410000  0.16890000  1
  H  H216  1  0.98480000  0.00830000  0.66890000  1
  H  H217  1  0.00390000  0.70180000  0.34330000  1
  H  H218  1  0.47220000  0.90420000  0.10620000  1
  H  H219  1  0.20200000  0.13400000  0.60620000  1
  H  H220  1  0.64560000  0.44820000  0.50060000  1
  H  H221  1  0.05240000  0.35500000  0.00060000  1
  H  H222  1  0.82550000  0.88970000  0.76380000  1
  H  H223  1  0.87410000  0.43830000  0.26380000  1
  H  H224  1  0.44110000  0.33270000  0.60360000  1
  H  H225  1  0.27090000  0.66250000  0.10360000  1
  H  H226  1  0.69190000  0.22850000  0.26720000  1
  H  H227  1  0.03870000  0.07530000  0.76720000  1
  H  H228  1  0.42800000  0.53300000  0.83820000  1
  H  H229  1  0.30520000  0.91020000  0.33820000  1
  H  H230  1  0.85140000  0.11060000  0.99480000  1
  H  H231  1  0.88420000  0.64340000  0.49480000  1
  H  H232  1  0.60710000  0.24810000  0.48560000  1
  H  H233  1  0.23750000  0.37850000  0.98560000  1
  H  H234  1  0.54320000  0.03680000  0.33960000  1
  H  H235  1  0.30280000  0.29640000  0.83960000  1
  H  H236  1  0.84160000  0.44380000  0.48960000  1
  H  H237  1  0.04580000  0.14800000  0.98960000  1
  H  H238  1  0.73610000  0.95490000  0.11000000  1
  H  H239  1  0.15510000  0.87390000  0.61000000  1
  H  H240  1  0.78840000  0.83560000  0.96000000  1
  H  H241  1  0.81890000  0.25090000  0.34480000  1
  H  H242  1  0.09390000  0.02590000  0.84480000  1
  H  H243  1  0.12440000  0.67160000  0.46000000  1
  H  H244  1  0.59670000  0.60290000  0.96320000  1
  H  H245  1  0.36030000  0.86650000  0.46320000  1
  H  H246  1  0.52660000  0.68040000  0.11340000  1
  H  H247  1  0.43300000  0.08680000  0.61340000  1
  N  N248  1  0.17604000  0.64192000  0.58816000  1
  N  N249  1  0.94624000  0.91212000  0.08816000  1
  N  N250  1  0.42776000  0.84498000  0.59254000  1
  N  N251  1  0.74756000  0.66478000  0.09254000  1
  N  N252  1  0.58331000  0.39966000  0.05897000  1
  N  N253  1  0.65931000  0.97566000  0.55897000  1
  N  N254  1  0.61643000  0.83815000  0.47338000  1
  N  N255  1  0.63523000  0.35695000  0.97338000  1
  N  N256  1  0.43756000  0.11436000  0.97292000  1
  N  N257  1  0.85856000  0.03536000  0.47292000  1
  N  N258  1  0.38484000  0.13840000  0.05984000  1
  N  N259  1  0.92144000  0.17500000  0.55984000  1
  N  N260  1  0.45036000  0.77673000  0.72829000  1
  N  N261  1  0.95156000  0.77793000  0.22829000  1
  N  N262  1  0.23478000  0.91051000  0.08309000  1
  N  N263  1  0.17258000  0.34831000  0.58309000  1
  N  N264  1  0.66166000  0.80562000  0.56488000  1
  N  N265  1  0.75926000  0.40322000  0.06488000  1
  N  N266  1  0.40560000  0.54326000  0.57840000  1
  N  N267  1  0.03514000  0.67280000  0.07840000  1
  N  N268  1  0.25330000  0.52970000  0.72820000  1
  N  N269  1  0.19850000  0.97490000  0.22820000  1
  N  N270  1  0.56118000  0.14755000  0.06333000  1
  N  N271  1  0.91578000  0.00215000  0.56333000  1
  N  N272  1  0.43882000  0.85245000  0.93667000  1
  N  N273  1  0.08422000  0.99785000  0.43667000  1
  N  N274  1  0.74670000  0.47030000  0.27180000  1
  N  N275  1  0.80150000  0.02510000  0.77180000  1
  N  N276  1  0.59440000  0.45674000  0.42160000  1
  N  N277  1  0.96486000  0.32720000  0.92160000  1
  N  N278  1  0.33834000  0.19438000  0.43512000  1
  N  N279  1  0.24074000  0.59678000  0.93512000  1
  N  N280  1  0.76522000  0.08949000  0.91691000  1
  N  N281  1  0.82742000  0.65169000  0.41691000  1
  N  N282  1  0.54964000  0.22327000  0.27171000  1
  N  N283  1  0.04844000  0.22207000  0.77171000  1
  N  N284  1  0.61516000  0.86160000  0.94016000  1
  N  N285  1  0.07856000  0.82500000  0.44016000  1
  N  N286  1  0.56244000  0.88564000  0.02708000  1
  N  N287  1  0.14144000  0.96464000  0.52708000  1
  N  N288  1  0.38357000  0.16185000  0.52662000  1
  N  N289  1  0.36477000  0.64305000  0.02662000  1
  N  N290  1  0.41669000  0.60034000  0.94103000  1
  N  N291  1  0.34069000  0.02434000  0.44103000  1
  N  N292  1  0.57224000  0.15502000  0.40746000  1
  N  N293  1  0.25244000  0.33522000  0.90746000  1
  N  N294  1  0.82396000  0.35808000  0.41184000  1
  N  N295  1  0.05376000  0.08788000  0.91184000  1
