# generated using pymatgen
data_Co3H24C30(NO5)2
_symmetry_space_group_name_H-M   'P 1'
_cell_length_a   15.19020000
_cell_length_b   17.50960000
_cell_length_c   17.50960000
_cell_angle_alpha   90.00000000
_cell_angle_beta   90.00000000
_cell_angle_gamma   90.00000000
_symmetry_Int_Tables_number   1
_chemical_formula_structural   Co3H24C30(NO5)2
_chemical_formula_sum   'Co12 H96 C120 N8 O40'
_cell_volume   4657.10405713
_cell_formula_units_Z   4
loop_
 _symmetry_equiv_pos_site_id
 _symmetry_equiv_pos_as_xyz
  1  'x, y, z'
loop_
 _atom_site_type_symbol
 _atom_site_label
 _atom_site_symmetry_multiplicity
 _atom_site_fract_x
 _atom_site_fract_y
 _atom_site_fract_z
 _atom_site_occupancy
  Co  Co0  1  0.03218000  0.10233000  0.86035000  1
  Co  Co1  1  0.03218000  0.89767000  0.13965000  1
  Co  Co2  1  0.25000000  0.14943000  0.85057000  1
  Co  Co3  1  0.25000000  0.85057000  0.14943000  1
  Co  Co4  1  0.46782000  0.13965000  0.89767000  1
  Co  Co5  1  0.46782000  0.86035000  0.10233000  1
  Co  Co6  1  0.53218000  0.10233000  0.13965000  1
  Co  Co7  1  0.53218000  0.89767000  0.86035000  1
  Co  Co8  1  0.75000000  0.14943000  0.14943000  1
  Co  Co9  1  0.75000000  0.85057000  0.85057000  1
  Co  Co10  1  0.96782000  0.13965000  0.10233000  1
  Co  Co11  1  0.96782000  0.86035000  0.89767000  1
  H  H12  1  0.04500000  0.13030000  0.33630000  1
  H  H13  1  0.04500000  0.86970000  0.66370000  1
  H  H14  1  0.07800000  0.11740000  0.46480000  1
  H  H15  1  0.07800000  0.88260000  0.53520000  1
  H  H16  1  0.08630000  0.17260000  0.58340000  1
  H  H17  1  0.08630000  0.82740000  0.41660000  1
  H  H18  1  0.09410000  0.25450000  0.03580000  1
  H  H19  1  0.09410000  0.74550000  0.96420000  1
  H  H20  1  0.11710000  0.16100000  0.71420000  1
  H  H21  1  0.11710000  0.83900000  0.28580000  1
  H  H22  1  0.12930000  0.38390000  0.04240000  1
  H  H23  1  0.12930000  0.61610000  0.95760000  1
  H  H24  1  0.15830000  0.01300000  0.26520000  1
  H  H25  1  0.15830000  0.98700000  0.73480000  1
  H  H26  1  0.17790000  0.48210000  0.11630000  1
  H  H27  1  0.17790000  0.51790000  0.88370000  1
  H  H28  1  0.21650000  0.38960000  0.86100000  1
  H  H29  1  0.21650000  0.61040000  0.13900000  1
  H  H30  1  0.21860000  0.08020000  0.23220000  1
  H  H31  1  0.21860000  0.91980000  0.76780000  1
  H  H32  1  0.22630000  0.01690000  0.10930000  1
  H  H33  1  0.22630000  0.98310000  0.89070000  1
  H  H34  1  0.24090000  0.24430000  0.99680000  1
  H  H35  1  0.24090000  0.75570000  0.00320000  1
  H  H36  1  0.25910000  0.00320000  0.75570000  1
  H  H37  1  0.25910000  0.99680000  0.24430000  1
  H  H38  1  0.27370000  0.10930000  0.01690000  1
  H  H39  1  0.27370000  0.89070000  0.98310000  1
  H  H40  1  0.28140000  0.23220000  0.08020000  1
  H  H41  1  0.28140000  0.76780000  0.91980000  1
  H  H42  1  0.28350000  0.13900000  0.61040000  1
  H  H43  1  0.28350000  0.86100000  0.38960000  1
  H  H44  1  0.32210000  0.11630000  0.48210000  1
  H  H45  1  0.32210000  0.88370000  0.51790000  1
  H  H46  1  0.34170000  0.26520000  0.01300000  1
  H  H47  1  0.34170000  0.73480000  0.98700000  1
  H  H48  1  0.37070000  0.04240000  0.38390000  1
  H  H49  1  0.37070000  0.95760000  0.61610000  1
  H  H50  1  0.38290000  0.28580000  0.83900000  1
  H  H51  1  0.38290000  0.71420000  0.16100000  1
  H  H52  1  0.40590000  0.03580000  0.25450000  1
  H  H53  1  0.40590000  0.96420000  0.74550000  1
  H  H54  1  0.41370000  0.41660000  0.82740000  1
  H  H55  1  0.41370000  0.58340000  0.17260000  1
  H  H56  1  0.42200000  0.46480000  0.11740000  1
  H  H57  1  0.42200000  0.53520000  0.88260000  1
  H  H58  1  0.45500000  0.33630000  0.13030000  1
  H  H59  1  0.45500000  0.66370000  0.86970000  1
  H  H60  1  0.54500000  0.13030000  0.66370000  1
  H  H61  1  0.54500000  0.86970000  0.33630000  1
  H  H62  1  0.57800000  0.11740000  0.53520000  1
  H  H63  1  0.57800000  0.88260000  0.46480000  1
  H  H64  1  0.58630000  0.17260000  0.41660000  1
  H  H65  1  0.58630000  0.82740000  0.58340000  1
  H  H66  1  0.59410000  0.25450000  0.96420000  1
  H  H67  1  0.59410000  0.74550000  0.03580000  1
  H  H68  1  0.61710000  0.16100000  0.28580000  1
  H  H69  1  0.61710000  0.83900000  0.71420000  1
  H  H70  1  0.62930000  0.38390000  0.95760000  1
  H  H71  1  0.62930000  0.61610000  0.04240000  1
  H  H72  1  0.65830000  0.01300000  0.73480000  1
  H  H73  1  0.65830000  0.98700000  0.26520000  1
  H  H74  1  0.67790000  0.48210000  0.88370000  1
  H  H75  1  0.67790000  0.51790000  0.11630000  1
  H  H76  1  0.71650000  0.38960000  0.13900000  1
  H  H77  1  0.71650000  0.61040000  0.86100000  1
  H  H78  1  0.71860000  0.08020000  0.76780000  1
  H  H79  1  0.71860000  0.91980000  0.23220000  1
  H  H80  1  0.72630000  0.01690000  0.89070000  1
  H  H81  1  0.72630000  0.98310000  0.10930000  1
  H  H82  1  0.74090000  0.24430000  0.00320000  1
  H  H83  1  0.74090000  0.75570000  0.99680000  1
  H  H84  1  0.75910000  0.00320000  0.24430000  1
  H  H85  1  0.75910000  0.99680000  0.75570000  1
  H  H86  1  0.77370000  0.10930000  0.98310000  1
  H  H87  1  0.77370000  0.89070000  0.01690000  1
  H  H88  1  0.78140000  0.23220000  0.91980000  1
  H  H89  1  0.78140000  0.76780000  0.08020000  1
  H  H90  1  0.78350000  0.13900000  0.38960000  1
  H  H91  1  0.78350000  0.86100000  0.61040000  1
  H  H92  1  0.82210000  0.11630000  0.51790000  1
  H  H93  1  0.82210000  0.88370000  0.48210000  1
  H  H94  1  0.84170000  0.26520000  0.98700000  1
  H  H95  1  0.84170000  0.73480000  0.01300000  1
  H  H96  1  0.87070000  0.04240000  0.61610000  1
  H  H97  1  0.87070000  0.95760000  0.38390000  1
  H  H98  1  0.88290000  0.28580000  0.16100000  1
  H  H99  1  0.88290000  0.71420000  0.83900000  1
  H  H100  1  0.90590000  0.03580000  0.74550000  1
  H  H101  1  0.90590000  0.96420000  0.25450000  1
  H  H102  1  0.91370000  0.41660000  0.17260000  1
  H  H103  1  0.91370000  0.58340000  0.82740000  1
  H  H104  1  0.92200000  0.46480000  0.88260000  1
  H  H105  1  0.92200000  0.53520000  0.11740000  1
  H  H106  1  0.95500000  0.33630000  0.86970000  1
  H  H107  1  0.95500000  0.66370000  0.13030000  1
  C  C108  1  0.00150000  0.37260000  0.87210000  1
  C  C109  1  0.00150000  0.62740000  0.12790000  1
  C  C110  1  0.01820000  0.12000000  0.44910000  1
  C  C111  1  0.01820000  0.88000000  0.55090000  1
  C  C112  1  0.02580000  0.41430000  0.10890000  1
  C  C113  1  0.02580000  0.58570000  0.89110000  1
  C  C114  1  0.04710000  0.49710000  0.11590000  1
  C  C115  1  0.04710000  0.50290000  0.88410000  1
  C  C116  1  0.04800000  0.14420000  0.61550000  1
  C  C117  1  0.04800000  0.85580000  0.38450000  1
  C  C118  1  0.05700000  0.28760000  0.06440000  1
  C  C119  1  0.05700000  0.71240000  0.93560000  1
  C  C120  1  0.06560000  0.13730000  0.69460000  1
  C  C121  1  0.06560000  0.86270000  0.30540000  1
  C  C122  1  0.07860000  0.36520000  0.06800000  1
  C  C123  1  0.07860000  0.63480000  0.93200000  1
  C  C124  1  0.08840000  0.34770000  0.86770000  1
  C  C125  1  0.08840000  0.65230000  0.13230000  1
  C  C126  1  0.09610000  0.04960000  0.12780000  1
  C  C127  1  0.09610000  0.95040000  0.87220000  1
  C  C128  1  0.11580000  0.26570000  0.85790000  1
  C  C129  1  0.11580000  0.73430000  0.14210000  1
  C  C130  1  0.13290000  0.48050000  0.87930000  1
  C  C131  1  0.13290000  0.51950000  0.12070000  1
  C  C132  1  0.15670000  0.40380000  0.86810000  1
  C  C133  1  0.15670000  0.59620000  0.13190000  1
  C  C134  1  0.17820000  0.00290000  0.14560000  1
  C  C135  1  0.17820000  0.99710000  0.85440000  1
  C  C136  1  0.20620000  0.02540000  0.22990000  1
  C  C137  1  0.20620000  0.97460000  0.77010000  1
  C  C138  1  0.29380000  0.22990000  0.02540000  1
  C  C139  1  0.29380000  0.77010000  0.97460000  1
  C  C140  1  0.32180000  0.14560000  0.00290000  1
  C  C141  1  0.32180000  0.85440000  0.99710000  1
  C  C142  1  0.34330000  0.13190000  0.59620000  1
  C  C143  1  0.34330000  0.86810000  0.40380000  1
  C  C144  1  0.36710000  0.12070000  0.51950000  1
  C  C145  1  0.36710000  0.87930000  0.48050000  1
  C  C146  1  0.38420000  0.14210000  0.73430000  1
  C  C147  1  0.38420000  0.85790000  0.26570000  1
  C  C148  1  0.40390000  0.12780000  0.04960000  1
  C  C149  1  0.40390000  0.87220000  0.95040000  1
  C  C150  1  0.41160000  0.13230000  0.65230000  1
  C  C151  1  0.41160000  0.86770000  0.34770000  1
  C  C152  1  0.42140000  0.06800000  0.36520000  1
  C  C153  1  0.42140000  0.93200000  0.63480000  1
  C  C154  1  0.43440000  0.30540000  0.86270000  1
  C  C155  1  0.43440000  0.69460000  0.13730000  1
  C  C156  1  0.44300000  0.06440000  0.28760000  1
  C  C157  1  0.44300000  0.93560000  0.71240000  1
  C  C158  1  0.45200000  0.38450000  0.85580000  1
  C  C159  1  0.45200000  0.61550000  0.14420000  1
  C  C160  1  0.45290000  0.11590000  0.49710000  1
  C  C161  1  0.45290000  0.88410000  0.50290000  1
  C  C162  1  0.47420000  0.10890000  0.41430000  1
  C  C163  1  0.47420000  0.89110000  0.58570000  1
  C  C164  1  0.48180000  0.44910000  0.12000000  1
  C  C165  1  0.48180000  0.55090000  0.88000000  1
  C  C166  1  0.49850000  0.12790000  0.62740000  1
  C  C167  1  0.49850000  0.87210000  0.37260000  1
  C  C168  1  0.50150000  0.37260000  0.12790000  1
  C  C169  1  0.50150000  0.62740000  0.87210000  1
  C  C170  1  0.51820000  0.12000000  0.55090000  1
  C  C171  1  0.51820000  0.88000000  0.44910000  1
  C  C172  1  0.52580000  0.41430000  0.89110000  1
  C  C173  1  0.52580000  0.58570000  0.10890000  1
  C  C174  1  0.54710000  0.49710000  0.88410000  1
  C  C175  1  0.54710000  0.50290000  0.11590000  1
  C  C176  1  0.54800000  0.14420000  0.38450000  1
  C  C177  1  0.54800000  0.85580000  0.61550000  1
  C  C178  1  0.55700000  0.28760000  0.93560000  1
  C  C179  1  0.55700000  0.71240000  0.06440000  1
  C  C180  1  0.56560000  0.13730000  0.30540000  1
  C  C181  1  0.56560000  0.86270000  0.69460000  1
  C  C182  1  0.57860000  0.36520000  0.93200000  1
  C  C183  1  0.57860000  0.63480000  0.06800000  1
  C  C184  1  0.58840000  0.34770000  0.13230000  1
  C  C185  1  0.58840000  0.65230000  0.86770000  1
  C  C186  1  0.59610000  0.04960000  0.87220000  1
  C  C187  1  0.59610000  0.95040000  0.12780000  1
  C  C188  1  0.61580000  0.26570000  0.14210000  1
  C  C189  1  0.61580000  0.73430000  0.85790000  1
  C  C190  1  0.63290000  0.48050000  0.12070000  1
  C  C191  1  0.63290000  0.51950000  0.87930000  1
  C  C192  1  0.65670000  0.40380000  0.13190000  1
  C  C193  1  0.65670000  0.59620000  0.86810000  1
  C  C194  1  0.67820000  0.00290000  0.85440000  1
  C  C195  1  0.67820000  0.99710000  0.14560000  1
  C  C196  1  0.70620000  0.02540000  0.77010000  1
  C  C197  1  0.70620000  0.97460000  0.22990000  1
  C  C198  1  0.79380000  0.22990000  0.97460000  1
  C  C199  1  0.79380000  0.77010000  0.02540000  1
  C  C200  1  0.82180000  0.14560000  0.99710000  1
  C  C201  1  0.82180000  0.85440000  0.00290000  1
  C  C202  1  0.84330000  0.13190000  0.40380000  1
  C  C203  1  0.84330000  0.86810000  0.59620000  1
  C  C204  1  0.86710000  0.12070000  0.48050000  1
  C  C205  1  0.86710000  0.87930000  0.51950000  1
  C  C206  1  0.88420000  0.14210000  0.26570000  1
  C  C207  1  0.88420000  0.85790000  0.73430000  1
  C  C208  1  0.90390000  0.12780000  0.95040000  1
  C  C209  1  0.90390000  0.87220000  0.04960000  1
  C  C210  1  0.91160000  0.13230000  0.34770000  1
  C  C211  1  0.91160000  0.86770000  0.65230000  1
  C  C212  1  0.92140000  0.06800000  0.63480000  1
  C  C213  1  0.92140000  0.93200000  0.36520000  1
  C  C214  1  0.93440000  0.30540000  0.13730000  1
  C  C215  1  0.93440000  0.69460000  0.86270000  1
  C  C216  1  0.94300000  0.06440000  0.71240000  1
  C  C217  1  0.94300000  0.93560000  0.28760000  1
  C  C218  1  0.95200000  0.38450000  0.14420000  1
  C  C219  1  0.95200000  0.61550000  0.85580000  1
  C  C220  1  0.95290000  0.11590000  0.50290000  1
  C  C221  1  0.95290000  0.88410000  0.49710000  1
  C  C222  1  0.97420000  0.10890000  0.58570000  1
  C  C223  1  0.97420000  0.89110000  0.41430000  1
  C  C224  1  0.98180000  0.44910000  0.88000000  1
  C  C225  1  0.98180000  0.55090000  0.12000000  1
  C  C226  1  0.99850000  0.12790000  0.37260000  1
  C  C227  1  0.99850000  0.87210000  0.62740000  1
  N  N228  1  0.01400000  0.09960000  0.74270000  1
  N  N229  1  0.01400000  0.90040000  0.25730000  1
  N  N230  1  0.48600000  0.25730000  0.90040000  1
  N  N231  1  0.48600000  0.74270000  0.09960000  1
  N  N232  1  0.51400000  0.09960000  0.25730000  1
  N  N233  1  0.51400000  0.90040000  0.74270000  1
  N  N234  1  0.98600000  0.25730000  0.09960000  1
  N  N235  1  0.98600000  0.74270000  0.90040000  1
  O  O236  1  0.02290000  0.01670000  0.12230000  1
  O  O237  1  0.02290000  0.98330000  0.87770000  1
  O  O238  1  0.05080000  0.21870000  0.85960000  1
  O  O239  1  0.05080000  0.78130000  0.14040000  1
  O  O240  1  0.10210000  0.12050000  0.11920000  1
  O  O241  1  0.10210000  0.87950000  0.88080000  1
  O  O242  1  0.15900000  0.07490000  0.86140000  1
  O  O243  1  0.15900000  0.92510000  0.13860000  1
  O  O244  1  0.19330000  0.25020000  0.85150000  1
  O  O245  1  0.19330000  0.74980000  0.14850000  1
  O  O246  1  0.30670000  0.14850000  0.74980000  1
  O  O247  1  0.30670000  0.85150000  0.25020000  1
  O  O248  1  0.34100000  0.13860000  0.92510000  1
  O  O249  1  0.34100000  0.86140000  0.07490000  1
  O  O250  1  0.39790000  0.11920000  0.12050000  1
  O  O251  1  0.39790000  0.88080000  0.87950000  1
  O  O252  1  0.44920000  0.14040000  0.78130000  1
  O  O253  1  0.44920000  0.85960000  0.21870000  1
  O  O254  1  0.47710000  0.12230000  0.01670000  1
  O  O255  1  0.47710000  0.87770000  0.98330000  1
  O  O256  1  0.52290000  0.01670000  0.87770000  1
  O  O257  1  0.52290000  0.98330000  0.12230000  1
  O  O258  1  0.55080000  0.21870000  0.14040000  1
  O  O259  1  0.55080000  0.78130000  0.85960000  1
  O  O260  1  0.60210000  0.12050000  0.88080000  1
  O  O261  1  0.60210000  0.87950000  0.11920000  1
  O  O262  1  0.65900000  0.07490000  0.13860000  1
  O  O263  1  0.65900000  0.92510000  0.86140000  1
  O  O264  1  0.69330000  0.25020000  0.14850000  1
  O  O265  1  0.69330000  0.74980000  0.85150000  1
  O  O266  1  0.80670000  0.14850000  0.25020000  1
  O  O267  1  0.80670000  0.85150000  0.74980000  1
  O  O268  1  0.84100000  0.13860000  0.07490000  1
  O  O269  1  0.84100000  0.86140000  0.92510000  1
  O  O270  1  0.89790000  0.11920000  0.87950000  1
  O  O271  1  0.89790000  0.88080000  0.12050000  1
  O  O272  1  0.94920000  0.14040000  0.21870000  1
  O  O273  1  0.94920000  0.85960000  0.78130000  1
  O  O274  1  0.97710000  0.12230000  0.98330000  1
  O  O275  1  0.97710000  0.87770000  0.01670000  1
