# generated using pymatgen
data_Nd2Cu2H5(C5O4)5
_symmetry_space_group_name_H-M   'P 1'
_cell_length_a   10.92700000
_cell_length_b   19.80700000
_cell_length_c   20.39100000
_cell_angle_alpha   90.00000000
_cell_angle_beta   90.00000000
_cell_angle_gamma   99.61000000
_symmetry_Int_Tables_number   1
_chemical_formula_structural   Nd2Cu2H5(C5O4)5
_chemical_formula_sum   'Nd8 Cu8 H20 C100 O80'
_cell_volume   4351.31487668
_cell_formula_units_Z   4
loop_
 _symmetry_equiv_pos_site_id
 _symmetry_equiv_pos_as_xyz
  1  'x, y, z'
loop_
 _atom_site_type_symbol
 _atom_site_label
 _atom_site_symmetry_multiplicity
 _atom_site_fract_x
 _atom_site_fract_y
 _atom_site_fract_z
 _atom_site_occupancy
  Nd  Nd0  1  0.03743000  0.84552000  0.37212000  1
  Nd  Nd1  1  0.15889000  0.91803000  0.87302000  1
  Nd  Nd2  1  0.34111000  0.58197000  0.37302000  1
  Nd  Nd3  1  0.46257000  0.65448000  0.87212000  1
  Nd  Nd4  1  0.53743000  0.34552000  0.12788000  1
  Nd  Nd5  1  0.65889000  0.41803000  0.62698000  1
  Nd  Nd6  1  0.84111000  0.08197000  0.12698000  1
  Nd  Nd7  1  0.96257000  0.15448000  0.62788000  1
  Cu  Cu8  1  0.08014000  0.83151000  0.17391000  1
  Cu  Cu9  1  0.20471000  0.91021000  0.67337000  1
  Cu  Cu10  1  0.29529000  0.58979000  0.17337000  1
  Cu  Cu11  1  0.41986000  0.66849000  0.67391000  1
  Cu  Cu12  1  0.58014000  0.33151000  0.32609000  1
  Cu  Cu13  1  0.70471000  0.41021000  0.82663000  1
  Cu  Cu14  1  0.79529000  0.08979000  0.32663000  1
  Cu  Cu15  1  0.91986000  0.16849000  0.82609000  1
  H  H16  1  0.01310000  0.42700000  0.31300000  1
  H  H17  1  0.08280000  0.43710000  0.07840000  1
  H  H18  1  0.10560000  0.24760000  0.18760000  1
  H  H19  1  0.13040000  0.50430000  0.80320000  1
  H  H20  1  0.23170000  0.32380000  0.68250000  1
  H  H21  1  0.26830000  0.17620000  0.18250000  1
  H  H22  1  0.36960000  0.99570000  0.30320000  1
  H  H23  1  0.39440000  0.25240000  0.68760000  1
  H  H24  1  0.41720000  0.06290000  0.57840000  1
  H  H25  1  0.48690000  0.07300000  0.81300000  1
  H  H26  1  0.51310000  0.92700000  0.18700000  1
  H  H27  1  0.58280000  0.93710000  0.42160000  1
  H  H28  1  0.60560000  0.74760000  0.31240000  1
  H  H29  1  0.63040000  0.00430000  0.69680000  1
  H  H30  1  0.73170000  0.82380000  0.81750000  1
  H  H31  1  0.76830000  0.67620000  0.31750000  1
  H  H32  1  0.86960000  0.49570000  0.19680000  1
  H  H33  1  0.89440000  0.75240000  0.81240000  1
  H  H34  1  0.91720000  0.56290000  0.92160000  1
  H  H35  1  0.98690000  0.57300000  0.68700000  1
  C  C36  1  0.01280000  0.72890000  0.74390000  1
  C  C37  1  0.03130000  0.39050000  0.28820000  1
  C  C38  1  0.03470000  0.60550000  0.17210000  1
  C  C39  1  0.04330000  0.27850000  0.75850000  1
  C  C40  1  0.04480000  0.67260000  0.70680000  1
  C  C41  1  0.04950000  0.46280000  0.04700000  1
  C  C42  1  0.07850000  0.55050000  0.96540000  1
  C  C43  1  0.07860000  0.40330000  0.78610000  1
  C  C44  1  0.08220000  0.79940000  0.73490000  1
  C  C45  1  0.08820000  0.28300000  0.21420000  1
  C  C46  1  0.09070000  0.07050000  0.16870000  1
  C  C47  1  0.11110000  0.34930000  0.74960000  1
  C  C48  1  0.12660000  0.51310000  0.01360000  1
  C  C49  1  0.13430000  0.40080000  0.24710000  1
  C  C50  1  0.15180000  0.46750000  0.78010000  1
  C  C51  1  0.16000000  0.60420000  0.92510000  1
  C  C52  1  0.16020000  0.67730000  0.66770000  1
  C  C53  1  0.16460000  0.34690000  0.21090000  1
  C  C54  1  0.17410000  0.94950000  0.23280000  1
  C  C55  1  0.20230000  0.47270000  0.24060000  1
  C  C56  1  0.21140000  0.07610000  0.20360000  1
  C  C57  1  0.21330000  0.35980000  0.70790000  1
  C  C58  1  0.21510000  0.14630000  0.67210000  1
  C  C59  1  0.23830000  0.97550000  0.53190000  1
  C  C60  1  0.24510000  0.02240000  0.24070000  1
  C  C61  1  0.25490000  0.47760000  0.74070000  1
  C  C62  1  0.26170000  0.52450000  0.03190000  1
  C  C63  1  0.28490000  0.35370000  0.17210000  1
  C  C64  1  0.28670000  0.14020000  0.20790000  1
  C  C65  1  0.28860000  0.42390000  0.70360000  1
  C  C66  1  0.29770000  0.02730000  0.74060000  1
  C  C67  1  0.32590000  0.55050000  0.73280000  1
  C  C68  1  0.33540000  0.15310000  0.71090000  1
  C  C69  1  0.33980000  0.82270000  0.16770000  1
  C  C70  1  0.34000000  0.89580000  0.42510000  1
  C  C71  1  0.34820000  0.03250000  0.28010000  1
  C  C72  1  0.36570000  0.09920000  0.74710000  1
  C  C73  1  0.37340000  0.98690000  0.51360000  1
  C  C74  1  0.38890000  0.15070000  0.24960000  1
  C  C75  1  0.40930000  0.42950000  0.66870000  1
  C  C76  1  0.41180000  0.21700000  0.71420000  1
  C  C77  1  0.41780000  0.70060000  0.23490000  1
  C  C78  1  0.42140000  0.09670000  0.28610000  1
  C  C79  1  0.42150000  0.94950000  0.46540000  1
  C  C80  1  0.45050000  0.03720000  0.54700000  1
  C  C81  1  0.45520000  0.82740000  0.20680000  1
  C  C82  1  0.45670000  0.22150000  0.25850000  1
  C  C83  1  0.46530000  0.89450000  0.67210000  1
  C  C84  1  0.46870000  0.10950000  0.78820000  1
  C  C85  1  0.48720000  0.77110000  0.24390000  1
  C  C86  1  0.51280000  0.22890000  0.75610000  1
  C  C87  1  0.53130000  0.89050000  0.21180000  1
  C  C88  1  0.53470000  0.10550000  0.32790000  1
  C  C89  1  0.54330000  0.77850000  0.74150000  1
  C  C90  1  0.54480000  0.17260000  0.79320000  1
  C  C91  1  0.54950000  0.96280000  0.45300000  1
  C  C92  1  0.57850000  0.05050000  0.53460000  1
  C  C93  1  0.57860000  0.90330000  0.71390000  1
  C  C94  1  0.58220000  0.29940000  0.76510000  1
  C  C95  1  0.58820000  0.78300000  0.28580000  1
  C  C96  1  0.59070000  0.57050000  0.33130000  1
  C  C97  1  0.61110000  0.84930000  0.75040000  1
  C  C98  1  0.62660000  0.01310000  0.48640000  1
  C  C99  1  0.63430000  0.90080000  0.25290000  1
  C  C100  1  0.65180000  0.96750000  0.71990000  1
  C  C101  1  0.66000000  0.10420000  0.57490000  1
  C  C102  1  0.66020000  0.17730000  0.83230000  1
  C  C103  1  0.66460000  0.84690000  0.28910000  1
  C  C104  1  0.67410000  0.44950000  0.26720000  1
  C  C105  1  0.70230000  0.97270000  0.25940000  1
  C  C106  1  0.71140000  0.57610000  0.29640000  1
  C  C107  1  0.71330000  0.85980000  0.79210000  1
  C  C108  1  0.71510000  0.64630000  0.82790000  1
  C  C109  1  0.73830000  0.47550000  0.96810000  1
  C  C110  1  0.74510000  0.52240000  0.25930000  1
  C  C111  1  0.75490000  0.97760000  0.75930000  1
  C  C112  1  0.76170000  0.02450000  0.46810000  1
  C  C113  1  0.78490000  0.85370000  0.32790000  1
  C  C114  1  0.78670000  0.64020000  0.29210000  1
  C  C115  1  0.78860000  0.92390000  0.79640000  1
  C  C116  1  0.79770000  0.52730000  0.75940000  1
  C  C117  1  0.82590000  0.05050000  0.76720000  1
  C  C118  1  0.83540000  0.65310000  0.78910000  1
  C  C119  1  0.83980000  0.32270000  0.33230000  1
  C  C120  1  0.84000000  0.39580000  0.07490000  1
  C  C121  1  0.84820000  0.53250000  0.21990000  1
  C  C122  1  0.86570000  0.59920000  0.75290000  1
  C  C123  1  0.87340000  0.48690000  0.98640000  1
  C  C124  1  0.88890000  0.65070000  0.25040000  1
  C  C125  1  0.90930000  0.92950000  0.83130000  1
  C  C126  1  0.91180000  0.71700000  0.78580000  1
  C  C127  1  0.91780000  0.20060000  0.26510000  1
  C  C128  1  0.92140000  0.59670000  0.21390000  1
  C  C129  1  0.92150000  0.44950000  0.03460000  1
  C  C130  1  0.95050000  0.53720000  0.95300000  1
  C  C131  1  0.95520000  0.32740000  0.29320000  1
  C  C132  1  0.95670000  0.72150000  0.24150000  1
  C  C133  1  0.96530000  0.39450000  0.82790000  1
  C  C134  1  0.96870000  0.60950000  0.71180000  1
  C  C135  1  0.98720000  0.27110000  0.25610000  1
  O  O136  1  0.00100000  0.26300000  0.81510000  1
  O  O137  1  0.00300000  0.96750000  0.80580000  1
  O  O138  1  0.02680000  0.60300000  0.11250000  1
  O  O139  1  0.03670000  0.23670000  0.71190000  1
  O  O140  1  0.07990000  0.10620000  0.11950000  1
  O  O141  1  0.09130000  0.84080000  0.78140000  1
  O  O142  1  0.10770000  0.64510000  0.89170000  1
  O  O143  1  0.12210000  0.11040000  0.69900000  1
  O  O144  1  0.12450000  0.81450000  0.67790000  1
  O  O145  1  0.13760000  0.61430000  0.20480000  1
  O  O146  1  0.13980000  0.91600000  0.28320000  1
  O  O147  1  0.15070000  0.65760000  0.60940000  1
  O  O148  1  0.15940000  0.92690000  0.17550000  1
  O  O149  1  0.17750000  0.02090000  0.51210000  1
  O  O150  1  0.19210000  0.92350000  0.56480000  1
  O  O151  1  0.20660000  0.17770000  0.62020000  1
  O  O152  1  0.22140000  0.49410000  0.18240000  1
  O  O153  1  0.22590000  0.89690000  0.42490000  1
  O  O154  1  0.23050000  0.50790000  0.29120000  1
  O  O155  1  0.24070000  0.80380000  0.19790000  1
  O  O156  1  0.25930000  0.69620000  0.69790000  1
  O  O157  1  0.26950000  0.99210000  0.79120000  1
  O  O158  1  0.27410000  0.60310000  0.92490000  1
  O  O159  1  0.27860000  0.00590000  0.68240000  1
  O  O160  1  0.29340000  0.32230000  0.12020000  1
  O  O161  1  0.30790000  0.57650000  0.06480000  1
  O  O162  1  0.32250000  0.47910000  0.01210000  1
  O  O163  1  0.34060000  0.57310000  0.67550000  1
  O  O164  1  0.34930000  0.84240000  0.10940000  1
  O  O165  1  0.36020000  0.58400000  0.78320000  1
  O  O166  1  0.36240000  0.88570000  0.70480000  1
  O  O167  1  0.37550000  0.68550000  0.17790000  1
  O  O168  1  0.37790000  0.38960000  0.19900000  1
  O  O169  1  0.39230000  0.85490000  0.39170000  1
  O  O170  1  0.40870000  0.65920000  0.28140000  1
  O  O171  1  0.42010000  0.39380000  0.61950000  1
  O  O172  1  0.46330000  0.26330000  0.21190000  1
  O  O173  1  0.47320000  0.89700000  0.61250000  1
  O  O174  1  0.49700000  0.53250000  0.30580000  1
  O  O175  1  0.49900000  0.23700000  0.31510000  1
  O  O176  1  0.50100000  0.76300000  0.68490000  1
  O  O177  1  0.50300000  0.46750000  0.69420000  1
  O  O178  1  0.52680000  0.10300000  0.38750000  1
  O  O179  1  0.53670000  0.73670000  0.78810000  1
  O  O180  1  0.57990000  0.60620000  0.38050000  1
  O  O181  1  0.59130000  0.34080000  0.71860000  1
  O  O182  1  0.60770000  0.14510000  0.60830000  1
  O  O183  1  0.62210000  0.61040000  0.80100000  1
  O  O184  1  0.62450000  0.31450000  0.82210000  1
  O  O185  1  0.63760000  0.11430000  0.29520000  1
  O  O186  1  0.63980000  0.41600000  0.21680000  1
  O  O187  1  0.65070000  0.15760000  0.89060000  1
  O  O188  1  0.65940000  0.42690000  0.32450000  1
  O  O189  1  0.67750000  0.52090000  0.98790000  1
  O  O190  1  0.69210000  0.42350000  0.93520000  1
  O  O191  1  0.70660000  0.67770000  0.87980000  1
  O  O192  1  0.72140000  0.99410000  0.31760000  1
  O  O193  1  0.72590000  0.39690000  0.07510000  1
  O  O194  1  0.73050000  0.00790000  0.20880000  1
  O  O195  1  0.74070000  0.30380000  0.30210000  1
  O  O196  1  0.75930000  0.19620000  0.80210000  1
  O  O197  1  0.76950000  0.49210000  0.70880000  1
  O  O198  1  0.77410000  0.10310000  0.57510000  1
  O  O199  1  0.77860000  0.50590000  0.81760000  1
  O  O200  1  0.79340000  0.82230000  0.37980000  1
  O  O201  1  0.80790000  0.07650000  0.43520000  1
  O  O202  1  0.82250000  0.97910000  0.48790000  1
  O  O203  1  0.84060000  0.07310000  0.82450000  1
  O  O204  1  0.84930000  0.34240000  0.39060000  1
  O  O205  1  0.86020000  0.08400000  0.71680000  1
  O  O206  1  0.86240000  0.38570000  0.79520000  1
  O  O207  1  0.87550000  0.18550000  0.32210000  1
  O  O208  1  0.87790000  0.88960000  0.30100000  1
  O  O209  1  0.89230000  0.35490000  0.10830000  1
  O  O210  1  0.90870000  0.15920000  0.21860000  1
  O  O211  1  0.92010000  0.89380000  0.88050000  1
  O  O212  1  0.96330000  0.76330000  0.28810000  1
  O  O213  1  0.97320000  0.39700000  0.88750000  1
  O  O214  1  0.99700000  0.03250000  0.19420000  1
  O  O215  1  0.99900000  0.73700000  0.18490000  1
