# generated using pymatgen
data_CoH18(C10N3)2
_symmetry_space_group_name_H-M   'P 1'
_cell_length_a   14.28946924
_cell_length_b   14.28946924
_cell_length_c   14.29101539
_cell_angle_alpha   104.97277838
_cell_angle_beta   109.36290985
_cell_angle_gamma   114.20644302
_symmetry_Int_Tables_number   1
_chemical_formula_structural   CoH18(C10N3)2
_chemical_formula_sum   'Co4 H72 C80 N24'
_cell_volume   2231.81255931
_cell_formula_units_Z   4
loop_
 _symmetry_equiv_pos_site_id
 _symmetry_equiv_pos_as_xyz
  1  'x, y, z'
loop_
 _atom_site_type_symbol
 _atom_site_label
 _atom_site_symmetry_multiplicity
 _atom_site_fract_x
 _atom_site_fract_y
 _atom_site_fract_z
 _atom_site_occupancy
  C  C0  1  0.55360000  0.24640000  0.18220000  1
  C  C1  1  0.43580000  0.62860000  0.68220000  1
  C  C2  1  0.43810000  0.17920000  0.09510000  1
  C  C3  1  0.41590000  0.65700000  0.59510000  1
  C  C4  1  0.80550000  0.05100000  0.55670000  1
  C  C5  1  0.00570000  0.75120000  0.05670000  1
  C  C6  1  0.64330000  0.27070000  0.15660000  1
  C  C7  1  0.38590000  0.51330000  0.65660000  1
  C  C8  1  0.94080000  0.26680000  0.44140000  1
  C  C9  1  0.67460000  0.50060000  0.94140000  1
  C  C10  1  0.69470000  0.95010000  0.51120000  1
  C  C11  1  0.06110000  0.81650000  0.01120000  1
  C  C12  1  0.52170000  0.00010000  0.24220000  1
  C  C13  1  0.74210000  0.72050000  0.74220000  1
  C  C14  1  0.05210000  0.28700000  0.47990000  1
  C  C15  1  0.69290000  0.42780000  0.97990000  1
  C  C16  1  0.41870000  0.13940000  0.98590000  1
  C  C17  1  0.34650000  0.56720000  0.48590000  1
  C  C18  1  0.89510000  0.03870000  0.55320000  1
  C  C19  1  0.01450000  0.65810000  0.05320000  1
  C  C20  1  0.84300000  0.15590000  0.36010000  1
  C  C21  1  0.70420000  0.51710000  0.86010000  1
  C  C22  1  0.62430000  0.03810000  0.23560000  1
  C  C23  1  0.69750000  0.61130000  0.73560000  1
  C  C24  1  0.41910000  0.90450000  0.15100000  1
  C  C25  1  0.74650000  0.73190000  0.65100000  1
  C  C26  1  0.68110000  0.84580000  0.47010000  1
  C  C27  1  0.12430000  0.78900000  0.97010000  1
  C  C28  1  0.51390000  0.16840000  0.96950000  1
  C  C29  1  0.30110000  0.45560000  0.46950000  1
  C  C30  1  0.87200000  0.92910000  0.50990000  1
  C  C31  1  0.08080000  0.63790000  0.00990000  1
  C  C32  1  0.86490000  0.07230000  0.31940000  1
  C  C33  1  0.74710000  0.45450000  0.81940000  1
  C  C34  1  0.61710000  0.98060000  0.13510000  1
  C  C35  1  0.65450000  0.51800000  0.63510000  1
  C  C36  1  0.98160000  0.10260000  0.36240000  1
  C  C37  1  0.75980000  0.38080000  0.86240000  1
  C  C38  1  0.17680000  0.04620000  0.57020000  1
  C  C39  1  0.02400000  0.39340000  0.07020000  1
  C  C40  1  0.50920000  0.88610000  0.04890000  1
  C  C41  1  0.66280000  0.53970000  0.54890000  1
  C  C42  1  0.17790000  0.95600000  0.58570000  1
  C  C43  1  0.12970000  0.40780000  0.08570000  1
  C  C44  1  0.28310000  0.82510000  0.81240000  1
  C  C45  1  0.48730000  0.52930000  0.31240000  1
  C  C46  1  0.27460000  0.85640000  0.72860000  1
  C  C47  1  0.37220000  0.45400000  0.22860000  1
  C  C48  1  0.65150000  0.01100000  0.89290000  1
  C  C49  1  0.38190000  0.24140000  0.39290000  1
  C  C50  1  0.59500000  0.07510000  0.76890000  1
  C  C51  1  0.19380000  0.17390000  0.26890000  1
  C  C52  1  0.22170000  0.01250000  0.43060000  1
  C  C53  1  0.91810000  0.20890000  0.93060000  1
  C  C54  1  0.77670000  0.74460000  0.24670000  1
  C  C55  1  0.00210000  0.47000000  0.74670000  1
  C  C56  1  0.20350000  0.89060000  0.52050000  1
  C  C57  1  0.12990000  0.31700000  0.02050000  1
  C  C58  1  0.21770000  0.77240000  0.61790000  1
  C  C59  1  0.34550000  0.40020000  0.11790000  1
  C  C60  1  0.22350000  0.91880000  0.43930000  1
  C  C61  1  0.02050000  0.21580000  0.93930000  1
  C  C62  1  0.81530000  0.77030000  0.17600000  1
  C  C63  1  0.90570000  0.36070000  0.67600000  1
  C  C64  1  0.19730000  0.63730000  0.69060000  1
  C  C65  1  0.55330000  0.49330000  0.19060000  1
  C  C66  1  0.59020000  0.89820000  0.80920000  1
  C  C67  1  0.41100000  0.21900000  0.30920000  1
  C  C68  1  0.52950000  0.96680000  0.67930000  1
  C  C69  1  0.21250000  0.14980000  0.17930000  1
  C  C70  1  0.90140000  0.68720000  0.30660000  1
  C  C71  1  0.11940000  0.40520000  0.80660000  1
  C  C72  1  0.18240000  0.65950000  0.60070000  1
  C  C73  1  0.44120000  0.41830000  0.10070000  1
  C  C74  1  0.52320000  0.87400000  0.69800000  1
  C  C75  1  0.32400000  0.17480000  0.19800000  1
  C  C76  1  0.90220000  0.75170000  0.16890000  1
  C  C77  1  0.91720000  0.26670000  0.66890000  1
  C  C78  1  0.94600000  0.71100000  0.23800000  1
  C  C79  1  0.02700000  0.29200000  0.73800000  1
  Co  Co80  1  0.25156000  0.25044000  0.51932000  1
  Co  Co81  1  0.76888000  0.26776000  0.01932000  1
  Co  Co82  1  0.75899000  0.67228000  0.42923000  1
  Co  Co83  1  0.25695000  0.67024000  0.92923000  1
  H  H84  1  0.75000000  0.15700000  0.58500000  1
  H  H85  1  0.92800000  0.83500000  0.08500000  1
  H  H86  1  0.42920000  0.38060000  0.03020000  1
  H  H87  1  0.14960000  0.60100000  0.53020000  1
  H  H88  1  0.57040000  0.27460000  0.25600000  1
  H  H89  1  0.48140000  0.68560000  0.75600000  1
  H  H90  1  0.03870000  0.23260000  0.73830000  1
  H  H91  1  0.00570000  0.69960000  0.23830000  1
  H  H92  1  0.26600000  0.10900000  0.04500000  1
  H  H93  1  0.43600000  0.77900000  0.54500000  1
  H  H94  1  0.93020000  0.32590000  0.46910000  1
  H  H95  1  0.64320000  0.53890000  0.96910000  1
  H  H96  1  0.63110000  0.95470000  0.50920000  1
  H  H97  1  0.05450000  0.87810000  0.00920000  1
  H  H98  1  0.73480000  0.18880000  0.37760000  1
  H  H99  1  0.68880000  0.64280000  0.87760000  1
  H  H100  1  0.52230000  0.03800000  0.30610000  1
  H  H101  1  0.76810000  0.78380000  0.80610000  1
  H  H102  1  0.72070000  0.31640000  0.21550000  1
  H  H103  1  0.39910000  0.49480000  0.71550000  1
  H  H104  1  0.11560000  0.36030000  0.53550000  1
  H  H105  1  0.67520000  0.41990000  0.03550000  1
  H  H106  1  0.96900000  0.10280000  0.57900000  1
  H  H107  1  0.97620000  0.61000000  0.07900000  1
  H  H108  1  0.35050000  0.87960000  0.15590000  1
  H  H109  1  0.77630000  0.80540000  0.65590000  1
  H  H110  1  0.34220000  0.09390000  0.92530000  1
  H  H111  1  0.33140000  0.58310000  0.42530000  1
  H  H112  1  0.15910000  0.83270000  0.93920000  1
  H  H113  1  0.60650000  0.78010000  0.43920000  1
  H  H114  1  0.15760000  0.08790000  0.61330000  1
  H  H115  1  0.02540000  0.45570000  0.11330000  1
  H  H116  1  0.49990000  0.14210000  0.89660000  1
  H  H117  1  0.25450000  0.39670000  0.39660000  1
  H  H118  1  0.93280000  0.92150000  0.50710000  1
  H  H119  1  0.08560000  0.57430000  0.00710000  1
  H  H120  1  0.80290000  0.99780000  0.26470000  1
  H  H121  1  0.76690000  0.46180000  0.76470000  1
  H  H122  1  0.68370000  0.00580000  0.12690000  1
  H  H123  1  0.62110000  0.44320000  0.62690000  1
  H  H124  1  0.31800000  0.88220000  0.88440000  1
  H  H125  1  0.50220000  0.56640000  0.38440000  1
  H  H126  1  0.16160000  0.93860000  0.63900000  1
  H  H127  1  0.20040000  0.47740000  0.13900000  1
  H  H128  1  0.99560000  0.04650000  0.33390000  1
  H  H129  1  0.78740000  0.33830000  0.83390000  1
  H  H130  1  0.30670000  0.93370000  0.74520000  1
  H  H131  1  0.31150000  0.43850000  0.24520000  1
  H  H132  1  0.50510000  0.84930000  0.98240000  1
  H  H133  1  0.63310000  0.47730000  0.48240000  1
  H  H134  1  0.69190000  0.02510000  0.96620000  1
  H  H135  1  0.44110000  0.27430000  0.46620000  1
  H  H136  1  0.59650000  0.13510000  0.75400000  1
  H  H137  1  0.11890000  0.15750000  0.25400000  1
  H  H138  1  0.71770000  0.75610000  0.24860000  1
  H  H139  1  0.99250000  0.53090000  0.74860000  1
  H  H140  1  0.23480000  0.03000000  0.37600000  1
  H  H141  1  0.84600000  0.14120000  0.87600000  1
  H  H142  1  0.78430000  0.80000000  0.13290000  1
  H  H143  1  0.83290000  0.34860000  0.63290000  1
  H  H144  1  0.93160000  0.65790000  0.35090000  1
  H  H145  1  0.19300000  0.41930000  0.85090000  1
  H  H146  1  0.59320000  0.84050000  0.82610000  1
  H  H147  1  0.48560000  0.23290000  0.32610000  1
  H  H148  1  0.48980000  0.95590000  0.60710000  1
  H  H149  1  0.15120000  0.11730000  0.10710000  1
  H  H150  1  0.17380000  0.56210000  0.67810000  1
  H  H151  1  0.61600000  0.50430000  0.17810000  1
  H  H152  1  0.23780000  0.87530000  0.39190000  1
  H  H153  1  0.01660000  0.15410000  0.89190000  1
  H  H154  1  0.19670000  0.74670000  0.46940000  1
  H  H155  1  0.22270000  0.27270000  0.96940000  1
  N  N156  1  0.81450000  0.15540000  0.59670000  1
  N  N157  1  0.94130000  0.78220000  0.09670000  1
  N  N158  1  0.33810000  0.14800000  0.10510000  1
  N  N159  1  0.45710000  0.76700000  0.60510000  1
  N  N160  1  0.73220000  0.13480000  0.32780000  1
  N  N161  1  0.69300000  0.59560000  0.82780000  1
  N  N162  1  0.62630000  0.23280000  0.05290000  1
  N  N163  1  0.32010000  0.42660000  0.55290000  1
  N  N164  1  0.07470000  0.20710000  0.44180000  1
  N  N165  1  0.73470000  0.36710000  0.94180000  1
  N  N166  1  0.76770000  0.83160000  0.47130000  1
  N  N167  1  0.13970000  0.70360000  0.97130000  1
  N  N168  1  0.40940000  0.84360000  0.05460000  1
  N  N169  1  0.71100000  0.64520000  0.55460000  1
  N  N170  1  0.20190000  0.07880000  0.49570000  1
  N  N171  1  0.91690000  0.29380000  0.99570000  1
  N  N172  1  0.65680000  0.10060000  0.87600000  1
  N  N173  1  0.27540000  0.21920000  0.37600000  1
  N  N174  1  0.24360000  0.71600000  0.79600000  1
  N  N175  1  0.58000000  0.55240000  0.29600000  1
  N  N176  1  0.81850000  0.70320000  0.31450000  1
  N  N177  1  0.11130000  0.49600000  0.81450000  1
  N  N178  1  0.20360000  0.79580000  0.52740000  1
  N  N179  1  0.23160000  0.32380000  0.02740000  1
