# generated using pymatgen
data_Zn4H31C37(NO11)2
_symmetry_space_group_name_H-M   'P 1'
_cell_length_a   14.41890000
_cell_length_b   14.59320000
_cell_length_c   18.05710000
_cell_angle_alpha   66.23010000
_cell_angle_beta   66.46820000
_cell_angle_gamma   60.39440000
_symmetry_Int_Tables_number   1
_chemical_formula_structural   Zn4H31C37(NO11)2
_chemical_formula_sum   'Zn8 H62 C74 N4 O44'
_cell_volume   2926.07207780
_cell_formula_units_Z   2
loop_
 _symmetry_equiv_pos_site_id
 _symmetry_equiv_pos_as_xyz
  1  'x, y, z'
loop_
 _atom_site_type_symbol
 _atom_site_label
 _atom_site_symmetry_multiplicity
 _atom_site_fract_x
 _atom_site_fract_y
 _atom_site_fract_z
 _atom_site_occupancy
  Zn  Zn0  1  0.03332000  0.74883000  0.02083000  1
  Zn  Zn1  1  0.30298000  0.75117000  0.47917000  1
  Zn  Zn2  1  0.35061000  0.23808000  0.35586000  1
  Zn  Zn3  1  0.44455000  0.26192000  0.14414000  1
  Zn  Zn4  1  0.55545000  0.73808000  0.85586000  1
  Zn  Zn5  1  0.64939000  0.76192000  0.64414000  1
  Zn  Zn6  1  0.69702000  0.24883000  0.52083000  1
  Zn  Zn7  1  0.96668000  0.25117000  0.97917000  1
  H  H8  1  0.05700000  0.24160000  0.37200000  1
  H  H9  1  0.12180000  0.93700000  0.98660000  1
  H  H10  1  0.12480000  0.75000000  0.75000000  1
  H  H11  1  0.12930000  0.27980000  0.64980000  1
  H  H12  1  0.13450000  0.83890000  0.07810000  1
  H  H13  1  0.14560000  0.72470000  0.14150000  1
  H  H14  1  0.15160000  0.95670000  0.88930000  1
  H  H15  1  0.17060000  0.25840000  0.12800000  1
  H  H16  1  0.19500000  0.53040000  0.14960000  1
  H  H17  1  0.23130000  0.46430000  0.08530000  1
  H  H18  1  0.24330000  0.77390000  0.89950000  1
  H  H19  1  0.25130000  0.74860000  0.08760000  1
  H  H20  1  0.26520000  0.05030000  0.83370000  1
  H  H21  1  0.27260000  0.59420000  0.97580000  1
  H  H22  1  0.28090000  0.03570000  0.41470000  1
  H  H23  1  0.28760000  0.79960000  0.95240000  1
  H  H24  1  0.31910000  0.58800000  0.04340000  1
  H  H25  1  0.34260000  0.90580000  0.52420000  1
  H  H26  1  0.35080000  0.55030000  0.33370000  1
  H  H27  1  0.37500000  0.96960000  0.35040000  1
  H  H28  1  0.40230000  0.01870000  0.59890000  1
  H  H29  1  0.41250000  0.24860000  0.58760000  1
  H  H30  1  0.41670000  0.72610000  0.60050000  1
  H  H31  1  0.44110000  0.77980000  0.14980000  1
  H  H32  1  0.44850000  0.33890000  0.57810000  1
  H  H33  1  0.45050000  0.91200000  0.45660000  1
  H  H34  1  0.45460000  0.43700000  0.48660000  1
  H  H35  1  0.46040000  0.29960000  0.45240000  1
  H  H36  1  0.48010000  0.51870000  0.09890000  1
  H  H37  1  0.48820000  0.22470000  0.64150000  1
  H  H38  1  0.49760000  0.54330000  0.61070000  1
  H  H39  1  0.50240000  0.45670000  0.38930000  1
  H  H40  1  0.51180000  0.77530000  0.35850000  1
  H  H41  1  0.51990000  0.48130000  0.90110000  1
  H  H42  1  0.53960000  0.70040000  0.54760000  1
  H  H43  1  0.54540000  0.56300000  0.51340000  1
  H  H44  1  0.54950000  0.08800000  0.54340000  1
  H  H45  1  0.55150000  0.66110000  0.42190000  1
  H  H46  1  0.55890000  0.22020000  0.85020000  1
  H  H47  1  0.58330000  0.27390000  0.39950000  1
  H  H48  1  0.58750000  0.75140000  0.41240000  1
  H  H49  1  0.59770000  0.98130000  0.40110000  1
  H  H50  1  0.62500000  0.03040000  0.64960000  1
  H  H51  1  0.64920000  0.44970000  0.66630000  1
  H  H52  1  0.65740000  0.09420000  0.47580000  1
  H  H53  1  0.68090000  0.41200000  0.95660000  1
  H  H54  1  0.71240000  0.20040000  0.04760000  1
  H  H55  1  0.71910000  0.96430000  0.58530000  1
  H  H56  1  0.72740000  0.40580000  0.02420000  1
  H  H57  1  0.73480000  0.94970000  0.16630000  1
  H  H58  1  0.74870000  0.25140000  0.91240000  1
  H  H59  1  0.75670000  0.22610000  0.10050000  1
  H  H60  1  0.76870000  0.53570000  0.91470000  1
  H  H61  1  0.80500000  0.46960000  0.85040000  1
  H  H62  1  0.82940000  0.74160000  0.87200000  1
  H  H63  1  0.84840000  0.04330000  0.11070000  1
  H  H64  1  0.85440000  0.27530000  0.85850000  1
  H  H65  1  0.86550000  0.16110000  0.92190000  1
  H  H66  1  0.87070000  0.72020000  0.35020000  1
  H  H67  1  0.87520000  0.25000000  0.25000000  1
  H  H68  1  0.87820000  0.06300000  0.01340000  1
  H  H69  1  0.94300000  0.75840000  0.62800000  1
  C  C70  1  0.00390000  0.73340000  0.89820000  1
  C  C71  1  0.02000000  0.25780000  0.17700000  1
  C  C72  1  0.04520000  0.75780000  0.67700000  1
  C  C73  1  0.04880000  0.24420000  0.32260000  1
  C  C74  1  0.06030000  0.75000000  0.75000000  1
  C  C75  1  0.09400000  0.24000000  0.81060000  1
  C  C76  1  0.11560000  0.25580000  0.17740000  1
  C  C77  1  0.13210000  0.90810000  0.94270000  1
  C  C78  1  0.13250000  0.25000000  0.25000000  1
  C  C79  1  0.13550000  0.76660000  0.60180000  1
  C  C80  1  0.17890000  0.76200000  0.08800000  1
  C  C81  1  0.18380000  0.17270000  0.75010000  1
  C  C82  1  0.18400000  0.21310000  0.66770000  1
  C  C83  1  0.19340000  0.53680000  0.09440000  1
  C  C84  1  0.22330000  0.79750000  0.94890000  1
  C  C85  1  0.23370000  0.25000000  0.25000000  1
  C  C86  1  0.25200000  0.60790000  0.02950000  1
  C  C87  1  0.26510000  0.07610000  0.77750000  1
  C  C88  1  0.26610000  0.15460000  0.61000000  1
  C  C89  1  0.27050000  0.20270000  0.51830000  1
  C  C90  1  0.32460000  0.96320000  0.40560000  1
  C  C91  1  0.34560000  0.01820000  0.72200000  1
  C  C92  1  0.34680000  0.05800000  0.63680000  1
  C  C93  1  0.35540000  0.74000000  0.31060000  1
  C  C94  1  0.38130000  0.57610000  0.27750000  1
  C  C95  1  0.38940000  0.89210000  0.47050000  1
  C  C96  1  0.39340000  0.67270000  0.25010000  1
  C  C97  1  0.40310000  0.41180000  0.24840000  1
  C  C98  1  0.41420000  0.51820000  0.22200000  1
  C  C99  1  0.43520000  0.71310000  0.16770000  1
  C  C100  1  0.43670000  0.91180000  0.74840000  1
  C  C101  1  0.45840000  0.55800000  0.13680000  1
  C  C102  1  0.46930000  0.65460000  0.11000000  1
  C  C103  1  0.46970000  0.70250000  0.55110000  1
  C  C104  1  0.47110000  0.26200000  0.58800000  1
  C  C105  1  0.48290000  0.59190000  0.55730000  1
  C  C106  1  0.49150000  0.29730000  0.98170000  1
  C  C107  1  0.50850000  0.70270000  0.01830000  1
  C  C108  1  0.51710000  0.40810000  0.44270000  1
  C  C109  1  0.52890000  0.73800000  0.41200000  1
  C  C110  1  0.53030000  0.29750000  0.44890000  1
  C  C111  1  0.53070000  0.34540000  0.89000000  1
  C  C112  1  0.54160000  0.44200000  0.86320000  1
  C  C113  1  0.56330000  0.08820000  0.25160000  1
  C  C114  1  0.56480000  0.28690000  0.83230000  1
  C  C115  1  0.58580000  0.48180000  0.77800000  1
  C  C116  1  0.59690000  0.58820000  0.75160000  1
  C  C117  1  0.60660000  0.32730000  0.74990000  1
  C  C118  1  0.61060000  0.10790000  0.52950000  1
  C  C119  1  0.61870000  0.42390000  0.72250000  1
  C  C120  1  0.64460000  0.26000000  0.68940000  1
  C  C121  1  0.65320000  0.94200000  0.36320000  1
  C  C122  1  0.65440000  0.98180000  0.27800000  1
  C  C123  1  0.67540000  0.03680000  0.59440000  1
  C  C124  1  0.72950000  0.79730000  0.48170000  1
  C  C125  1  0.73390000  0.84540000  0.39000000  1
  C  C126  1  0.73490000  0.92390000  0.22250000  1
  C  C127  1  0.74800000  0.39210000  0.97050000  1
  C  C128  1  0.76630000  0.75000000  0.75000000  1
  C  C129  1  0.77670000  0.20250000  0.05110000  1
  C  C130  1  0.80660000  0.46320000  0.90560000  1
  C  C131  1  0.81600000  0.78690000  0.33230000  1
  C  C132  1  0.81620000  0.82730000  0.24990000  1
  C  C133  1  0.82110000  0.23800000  0.91200000  1
  C  C134  1  0.86450000  0.23340000  0.39820000  1
  C  C135  1  0.86750000  0.75000000  0.75000000  1
  C  C136  1  0.86790000  0.09190000  0.05730000  1
  C  C137  1  0.88440000  0.74420000  0.82260000  1
  C  C138  1  0.90600000  0.76000000  0.18940000  1
  C  C139  1  0.93970000  0.25000000  0.25000000  1
  C  C140  1  0.95120000  0.75580000  0.67740000  1
  C  C141  1  0.95480000  0.24220000  0.32300000  1
  C  C142  1  0.98000000  0.74220000  0.82300000  1
  C  C143  1  0.99610000  0.26660000  0.10180000  1
  N  N144  1  0.18680000  0.72210000  0.02290000  1
  N  N145  1  0.43180000  0.77790000  0.47710000  1
  N  N146  1  0.56820000  0.22210000  0.52290000  1
  N  N147  1  0.81320000  0.27790000  0.97710000  1
  O  O148  1  0.01650000  0.72630000  0.20270000  1
  O  O149  1  0.03550000  0.90450000  0.94990000  1
  O  O150  1  0.07390000  0.24620000  0.03920000  1
  O  O151  1  0.08490000  0.57980000  0.09100000  1
  O  O152  1  0.08576000  0.19344000  0.88664000  1
  O  O153  1  0.09610000  0.70960000  0.90100000  1
  O  O154  1  0.14070000  0.74620000  0.53920000  1
  O  O155  1  0.19860000  0.28920000  0.49480000  1
  O  O156  1  0.20670000  0.79040000  0.59900000  1
  O  O157  1  0.23630000  0.25170000  0.31750000  1
  O  O158  1  0.25570000  0.92020000  0.40900000  1
  O  O159  1  0.30550000  0.24830000  0.18250000  1
  O  O160  1  0.33416000  0.69344000  0.38664000  1
  O  O161  1  0.35380000  0.15155000  0.46945000  1
  O  O162  1  0.36783000  0.37350000  0.32484000  1
  O  O163  1  0.38990000  0.59550000  0.55010000  1
  O  O164  1  0.42546000  0.37004000  0.19164000  1
  O  O165  1  0.43383000  0.87350000  0.82484000  1
  O  O166  1  0.44550000  0.77370000  0.29730000  1
  O  O167  1  0.47480000  0.34845000  0.03055000  1
  O  O168  1  0.48260000  0.21080000  0.00520000  1
  O  O169  1  0.48714000  0.12996000  0.30836000  1
  O  O170  1  0.51286000  0.87004000  0.69164000  1
  O  O171  1  0.51740000  0.78920000  0.99480000  1
  O  O172  1  0.52520000  0.65155000  0.96945000  1
  O  O173  1  0.55450000  0.22630000  0.70270000  1
  O  O174  1  0.56617000  0.12650000  0.17516000  1
  O  O175  1  0.57454000  0.62996000  0.80836000  1
  O  O176  1  0.61010000  0.40450000  0.44990000  1
  O  O177  1  0.63217000  0.62650000  0.67516000  1
  O  O178  1  0.64620000  0.84845000  0.53055000  1
  O  O179  1  0.66584000  0.30656000  0.61336000  1
  O  O180  1  0.69450000  0.75170000  0.81750000  1
  O  O181  1  0.74430000  0.07980000  0.59100000  1
  O  O182  1  0.76370000  0.74830000  0.68250000  1
  O  O183  1  0.79330000  0.20960000  0.40100000  1
  O  O184  1  0.80140000  0.71080000  0.50520000  1
  O  O185  1  0.85930000  0.25380000  0.46080000  1
  O  O186  1  0.90390000  0.29040000  0.09900000  1
  O  O187  1  0.91424000  0.80656000  0.11336000  1
  O  O188  1  0.91510000  0.42020000  0.90900000  1
  O  O189  1  0.92610000  0.75380000  0.96080000  1
  O  O190  1  0.96450000  0.09550000  0.05010000  1
  O  O191  1  0.98350000  0.27370000  0.79730000  1
