# generated using pymatgen
data_CuH10C20NO4
_symmetry_space_group_name_H-M   'P 1'
_cell_length_a   32.78924855
_cell_length_b   32.78924855
_cell_length_c   32.78924855
_cell_angle_alpha   60.00000000
_cell_angle_beta   60.00000000
_cell_angle_gamma   60.00000000
_symmetry_Int_Tables_number   1
_chemical_formula_structural   CuH10C20NO4
_chemical_formula_sum   'Cu12 H120 C240 N12 O48'
_cell_volume   24927.53838070
_cell_formula_units_Z   12
loop_
 _symmetry_equiv_pos_site_id
 _symmetry_equiv_pos_as_xyz
  1  'x, y, z'
loop_
 _atom_site_type_symbol
 _atom_site_label
 _atom_site_symmetry_multiplicity
 _atom_site_fract_x
 _atom_site_fract_y
 _atom_site_fract_z
 _atom_site_occupancy
  C  C0  1  0.11914000  0.87948000  0.77436000  1
  C  C1  1  0.87948000  0.11914000  0.22702000  1
  C  C2  1  0.77297000  0.22563000  0.87925000  1
  C  C3  1  0.22563000  0.77297000  0.12215000  1
  C  C4  1  0.75012000  0.24814000  0.04932000  1
  C  C5  1  0.24814000  0.75012000  0.95242000  1
  C  C6  1  0.73988000  0.25828000  0.09132000  1
  C  C7  1  0.25828000  0.73988000  0.91052000  1
  C  C8  1  0.74903000  0.24689000  0.95187000  1
  C  C9  1  0.24689000  0.74903000  0.05221000  1
  C  C10  1  0.69697000  0.29869000  0.10441000  1
  C  C11  1  0.29869000  0.69697000  0.89993000  1
  C  C12  1  0.71708000  0.27846000  0.02242000  1
  C  C13  1  0.27846000  0.71708000  0.98204000  1
  C  C14  1  0.73813000  0.25635000  0.91065000  1
  C  C15  1  0.25635000  0.73813000  0.09487000  1
  C  C16  1  0.71627000  0.27755000  0.98121000  1
  C  C17  1  0.27755000  0.71627000  0.02497000  1
  C  C18  1  0.67554000  0.31766000  0.03536000  1
  C  C19  1  0.31766000  0.67554000  0.97144000  1
  C  C20  1  0.66446000  0.32860000  0.07648000  1
  C  C21  1  0.32860000  0.66446000  0.93046000  1
  C  C22  1  0.69460000  0.29604000  0.90074000  1
  C  C23  1  0.29604000  0.69460000  0.10862000  1
  C  C24  1  0.67406000  0.31598000  0.97134000  1
  C  C25  1  0.31598000  0.67406000  0.03862000  1
  C  C26  1  0.60370000  0.38538000  0.00454000  1
  C  C27  1  0.38538000  0.60370000  0.00638000  1
  C  C28  1  0.66232000  0.32618000  0.93106000  1
  C  C29  1  0.32618000  0.66232000  0.08044000  1
  C  C30  1  0.51766000  0.47070000  0.00564000  1
  C  C31  1  0.47070000  0.51766000  0.00600000  1
  C  C32  1  0.99459000  0.96947000  0.56303000  1
  C  C33  1  0.96947000  0.99459000  0.47291000  1
  C  C34  1  0.99441000  0.96949000  0.60571000  1
  C  C35  1  0.96949000  0.99441000  0.43039000  1
  C  C36  1  0.55785000  0.38223000  0.01609000  1
  C  C37  1  0.38223000  0.55785000  0.04383000  1
  C  C38  1  0.51499000  0.42453000  0.01699000  1
  C  C39  1  0.42453000  0.51499000  0.04349000  1
  C  C40  1  0.77297000  0.12215000  0.22563000  1
  C  C41  1  0.12215000  0.77297000  0.87925000  1
  C  C42  1  0.77436000  0.11914000  0.87948000  1
  C  C43  1  0.11914000  0.77436000  0.22702000  1
  C  C44  1  0.73813000  0.09487000  0.25635000  1
  C  C45  1  0.09487000  0.73813000  0.91065000  1
  C  C46  1  0.73988000  0.09132000  0.91052000  1
  C  C47  1  0.09132000  0.73988000  0.25828000  1
  C  C48  1  0.69460000  0.10862000  0.29604000  1
  C  C49  1  0.10862000  0.69460000  0.90074000  1
  C  C50  1  0.69697000  0.10441000  0.89993000  1
  C  C51  1  0.10441000  0.69697000  0.29869000  1
  C  C52  1  0.74903000  0.05221000  0.24689000  1
  C  C53  1  0.05221000  0.74903000  0.95187000  1
  C  C54  1  0.75012000  0.04932000  0.95242000  1
  C  C55  1  0.04932000  0.75012000  0.24814000  1
  C  C56  1  0.66232000  0.08044000  0.32618000  1
  C  C57  1  0.08044000  0.66232000  0.93106000  1
  C  C58  1  0.71627000  0.02497000  0.27755000  1
  C  C59  1  0.02497000  0.71627000  0.98121000  1
  C  C60  1  0.66446000  0.07648000  0.93046000  1
  C  C61  1  0.07648000  0.66446000  0.32860000  1
  C  C62  1  0.71708000  0.02242000  0.98204000  1
  C  C63  1  0.02242000  0.71708000  0.27846000  1
  C  C64  1  0.67406000  0.03862000  0.31598000  1
  C  C65  1  0.03862000  0.67406000  0.97134000  1
  C  C66  1  0.67554000  0.03536000  0.97144000  1
  C  C67  1  0.03536000  0.67554000  0.31766000  1
  C  C68  1  0.75012000  0.95242000  0.24814000  1
  C  C69  1  0.95242000  0.75012000  0.04932000  1
  C  C70  1  0.74903000  0.95187000  0.05221000  1
  C  C71  1  0.95187000  0.74903000  0.24689000  1
  C  C72  1  0.71708000  0.98204000  0.27846000  1
  C  C73  1  0.98204000  0.71708000  0.02242000  1
  C  C74  1  0.71627000  0.98121000  0.02497000  1
  C  C75  1  0.98121000  0.71627000  0.27755000  1
  C  C76  1  0.87948000  0.77436000  0.11914000  1
  C  C77  1  0.77436000  0.87948000  0.22702000  1
  C  C78  1  0.77297000  0.87925000  0.12215000  1
  C  C79  1  0.87925000  0.77297000  0.22563000  1
  C  C80  1  0.73988000  0.91052000  0.25828000  1
  C  C81  1  0.91052000  0.73988000  0.09132000  1
  C  C82  1  0.73813000  0.91065000  0.09487000  1
  C  C83  1  0.91065000  0.73813000  0.25635000  1
  C  C84  1  0.67554000  0.97144000  0.31766000  1
  C  C85  1  0.97144000  0.67554000  0.03536000  1
  C  C86  1  0.67406000  0.97134000  0.03862000  1
  C  C87  1  0.97134000  0.67406000  0.31598000  1
  C  C88  1  0.60370000  0.00638000  0.38538000  1
  C  C89  1  0.00638000  0.60370000  0.00454000  1
  C  C90  1  0.60370000  0.00454000  0.00638000  1
  C  C91  1  0.00454000  0.60370000  0.38538000  1
  C  C92  1  0.55785000  0.04383000  0.38223000  1
  C  C93  1  0.04383000  0.55785000  0.01609000  1
  C  C94  1  0.60571000  0.99441000  0.96949000  1
  C  C95  1  0.99441000  0.60571000  0.43039000  1
  C  C96  1  0.69697000  0.89993000  0.29869000  1
  C  C97  1  0.89993000  0.69697000  0.10441000  1
  C  C98  1  0.69460000  0.90074000  0.10862000  1
  C  C99  1  0.90074000  0.69460000  0.29604000  1
  C  C100  1  0.66446000  0.93046000  0.32860000  1
  C  C101  1  0.93046000  0.66446000  0.07648000  1
  C  C102  1  0.66232000  0.93106000  0.08044000  1
  C  C103  1  0.93106000  0.66232000  0.32618000  1
  C  C104  1  0.96949000  0.60571000  0.99441000  1
  C  C105  1  0.60571000  0.96949000  0.43039000  1
  C  C106  1  0.55785000  0.01609000  0.04383000  1
  C  C107  1  0.01609000  0.55785000  0.38223000  1
  C  C108  1  0.51499000  0.04349000  0.42453000  1
  C  C109  1  0.04349000  0.51499000  0.01699000  1
  C  C110  1  0.56303000  0.99459000  0.96947000  1
  C  C111  1  0.99459000  0.56303000  0.47291000  1
  C  C112  1  0.96947000  0.56303000  0.99459000  1
  C  C113  1  0.56303000  0.96947000  0.47291000  1
  C  C114  1  0.51499000  0.01699000  0.04349000  1
  C  C115  1  0.01699000  0.51499000  0.42453000  1
  C  C116  1  0.51766000  0.00600000  0.47070000  1
  C  C117  1  0.00600000  0.51766000  0.00564000  1
  C  C118  1  0.51766000  0.00564000  0.00600000  1
  C  C119  1  0.00564000  0.51766000  0.47070000  1
  C  C120  1  0.00600000  0.47070000  0.51766000  1
  C  C121  1  0.47070000  0.00600000  0.00564000  1
  C  C122  1  0.47070000  0.00564000  0.51766000  1
  C  C123  1  0.00564000  0.47070000  0.00600000  1
  C  C124  1  0.04349000  0.42453000  0.51499000  1
  C  C125  1  0.42453000  0.04349000  0.01699000  1
  C  C126  1  0.99459000  0.47291000  0.96947000  1
  C  C127  1  0.47291000  0.99459000  0.56303000  1
  C  C128  1  0.96947000  0.47291000  0.56303000  1
  C  C129  1  0.47291000  0.96947000  0.99459000  1
  C  C130  1  0.42453000  0.01699000  0.51499000  1
  C  C131  1  0.01699000  0.42453000  0.04349000  1
  C  C132  1  0.04383000  0.38223000  0.55785000  1
  C  C133  1  0.38223000  0.04383000  0.01609000  1
  C  C134  1  0.99441000  0.43039000  0.96949000  1
  C  C135  1  0.43039000  0.99441000  0.60571000  1
  C  C136  1  0.08044000  0.32618000  0.66232000  1
  C  C137  1  0.32618000  0.08044000  0.93106000  1
  C  C138  1  0.32860000  0.07648000  0.66446000  1
  C  C139  1  0.07648000  0.32860000  0.93046000  1
  C  C140  1  0.10862000  0.29604000  0.69460000  1
  C  C141  1  0.29604000  0.10862000  0.90074000  1
  C  C142  1  0.29869000  0.10441000  0.69697000  1
  C  C143  1  0.10441000  0.29869000  0.89993000  1
  C  C144  1  0.96949000  0.43039000  0.60571000  1
  C  C145  1  0.43039000  0.96949000  0.99441000  1
  C  C146  1  0.38223000  0.01609000  0.55785000  1
  C  C147  1  0.01609000  0.38223000  0.04383000  1
  C  C148  1  0.00638000  0.38538000  0.60370000  1
  C  C149  1  0.38538000  0.00638000  0.00454000  1
  C  C150  1  0.38538000  0.00454000  0.60370000  1
  C  C151  1  0.00454000  0.38538000  0.00638000  1
  C  C152  1  0.03862000  0.31598000  0.67406000  1
  C  C153  1  0.31598000  0.03862000  0.97134000  1
  C  C154  1  0.31766000  0.03536000  0.67554000  1
  C  C155  1  0.03536000  0.31766000  0.97144000  1
  C  C156  1  0.09487000  0.25635000  0.73813000  1
  C  C157  1  0.25635000  0.09487000  0.91065000  1
  C  C158  1  0.25828000  0.09132000  0.73988000  1
  C  C159  1  0.09132000  0.25828000  0.91052000  1
  C  C160  1  0.12215000  0.22563000  0.77297000  1
  C  C161  1  0.22563000  0.12215000  0.87925000  1
  C  C162  1  0.11914000  0.22702000  0.87948000  1
  C  C163  1  0.22702000  0.11914000  0.77436000  1
  C  C164  1  0.02497000  0.27755000  0.71627000  1
  C  C165  1  0.27755000  0.02497000  0.98121000  1
  C  C166  1  0.27846000  0.02242000  0.71708000  1
  C  C167  1  0.02242000  0.27846000  0.98204000  1
  C  C168  1  0.05221000  0.24689000  0.74903000  1
  C  C169  1  0.24689000  0.05221000  0.95187000  1
  C  C170  1  0.24814000  0.04932000  0.75012000  1
  C  C171  1  0.04932000  0.24814000  0.95242000  1
  C  C172  1  0.97144000  0.31766000  0.67554000  1
  C  C173  1  0.31766000  0.97144000  0.03536000  1
  C  C174  1  0.31598000  0.97134000  0.67406000  1
  C  C175  1  0.97134000  0.31598000  0.03862000  1
  C  C176  1  0.98204000  0.27846000  0.71708000  1
  C  C177  1  0.27846000  0.98204000  0.02242000  1
  C  C178  1  0.93046000  0.32860000  0.66446000  1
  C  C179  1  0.32860000  0.93046000  0.07648000  1
  C  C180  1  0.27755000  0.98121000  0.71627000  1
  C  C181  1  0.98121000  0.27755000  0.02497000  1
  C  C182  1  0.32618000  0.93106000  0.66232000  1
  C  C183  1  0.93106000  0.32618000  0.08044000  1
  C  C184  1  0.95242000  0.24814000  0.75012000  1
  C  C185  1  0.24814000  0.95242000  0.04932000  1
  C  C186  1  0.24689000  0.95187000  0.74903000  1
  C  C187  1  0.95187000  0.24689000  0.05221000  1
  C  C188  1  0.89993000  0.29869000  0.69697000  1
  C  C189  1  0.29869000  0.89993000  0.10441000  1
  C  C190  1  0.29604000  0.90074000  0.69460000  1
  C  C191  1  0.90074000  0.29604000  0.10862000  1
  C  C192  1  0.91052000  0.25828000  0.73988000  1
  C  C193  1  0.25828000  0.91052000  0.09132000  1
  C  C194  1  0.25635000  0.91065000  0.73813000  1
  C  C195  1  0.91065000  0.25635000  0.09487000  1
  C  C196  1  0.87948000  0.22702000  0.77436000  1
  C  C197  1  0.22702000  0.87948000  0.11914000  1
  C  C198  1  0.22563000  0.87925000  0.77297000  1
  C  C199  1  0.87925000  0.22563000  0.12215000  1
  C  C200  1  0.01699000  0.04349000  0.51499000  1
  C  C201  1  0.04349000  0.01699000  0.42453000  1
  C  C202  1  0.01609000  0.04383000  0.55785000  1
  C  C203  1  0.04383000  0.01609000  0.38223000  1
  C  C204  1  0.60571000  0.43039000  0.99441000  1
  C  C205  1  0.43039000  0.60571000  0.96949000  1
  C  C206  1  0.56303000  0.47291000  0.99459000  1
  C  C207  1  0.47291000  0.56303000  0.96947000  1
  C  C208  1  0.00564000  0.00600000  0.51766000  1
  C  C209  1  0.00600000  0.00564000  0.47070000  1
  C  C210  1  0.93106000  0.08044000  0.66232000  1
  C  C211  1  0.08044000  0.93106000  0.32618000  1
  C  C212  1  0.00454000  0.00638000  0.60370000  1
  C  C213  1  0.00638000  0.00454000  0.38538000  1
  C  C214  1  0.97134000  0.03862000  0.67406000  1
  C  C215  1  0.03862000  0.97134000  0.31598000  1
  C  C216  1  0.90074000  0.10862000  0.69460000  1
  C  C217  1  0.10862000  0.90074000  0.29604000  1
  C  C218  1  0.07648000  0.93046000  0.66446000  1
  C  C219  1  0.93046000  0.07648000  0.32860000  1
  C  C220  1  0.03536000  0.97144000  0.67554000  1
  C  C221  1  0.97144000  0.03536000  0.31766000  1
  C  C222  1  0.98121000  0.02497000  0.71627000  1
  C  C223  1  0.02497000  0.98121000  0.27755000  1
  C  C224  1  0.91065000  0.09487000  0.73813000  1
  C  C225  1  0.09487000  0.91065000  0.25635000  1
  C  C226  1  0.02242000  0.98204000  0.71708000  1
  C  C227  1  0.98204000  0.02242000  0.27846000  1
  C  C228  1  0.10441000  0.89993000  0.69697000  1
  C  C229  1  0.89993000  0.10441000  0.29869000  1
  C  C230  1  0.95187000  0.05221000  0.74903000  1
  C  C231  1  0.05221000  0.95187000  0.24689000  1
  C  C232  1  0.09132000  0.91052000  0.73988000  1
  C  C233  1  0.91052000  0.09132000  0.25828000  1
  C  C234  1  0.04932000  0.95242000  0.75012000  1
  C  C235  1  0.95242000  0.04932000  0.24814000  1
  C  C236  1  0.87925000  0.12215000  0.77297000  1
  C  C237  1  0.12215000  0.87925000  0.22563000  1
  C  C238  1  0.77436000  0.22702000  0.11914000  1
  C  C239  1  0.22702000  0.77436000  0.87948000  1
  Cu  Cu240  1  0.14625000  0.85375000  0.85375000  1
  Cu  Cu241  1  0.19997000  0.80003000  0.80003000  1
  Cu  Cu242  1  0.80003000  0.19997000  0.19997000  1
  Cu  Cu243  1  0.85375000  0.14625000  0.14625000  1
  Cu  Cu244  1  0.85375000  0.14625000  0.85375000  1
  Cu  Cu245  1  0.80003000  0.19997000  0.80003000  1
  Cu  Cu246  1  0.19997000  0.80003000  0.19997000  1
  Cu  Cu247  1  0.14625000  0.85375000  0.14625000  1
  Cu  Cu248  1  0.85375000  0.85375000  0.14625000  1
  Cu  Cu249  1  0.80003000  0.80003000  0.19997000  1
  Cu  Cu250  1  0.19997000  0.19997000  0.80003000  1
  Cu  Cu251  1  0.14625000  0.14625000  0.85375000  1
  H  H252  1  0.78230000  0.21752000  0.03836000  1
  H  H253  1  0.21752000  0.78230000  0.96182000  1
  H  H254  1  0.78195000  0.21715000  0.96045000  1
  H  H255  1  0.21715000  0.78195000  0.04045000  1
  H  H256  1  0.68842000  0.30698000  0.13648000  1
  H  H257  1  0.30698000  0.68842000  0.86812000  1
  H  H258  1  0.63164000  0.35898000  0.08702000  1
  H  H259  1  0.35898000  0.63164000  0.92236000  1
  H  H260  1  0.68570000  0.30394000  0.86932000  1
  H  H261  1  0.30394000  0.68570000  0.14104000  1
  H  H262  1  0.62954000  0.35662000  0.92292000  1
  H  H263  1  0.35662000  0.62954000  0.09092000  1
  H  H264  1  0.98606000  0.94002000  0.56588000  1
  H  H265  1  0.94002000  0.98606000  0.50804000  1
  H  H266  1  0.98541000  0.94043000  0.64103000  1
  H  H267  1  0.94043000  0.98541000  0.43313000  1
  H  H268  1  0.55539000  0.34689000  0.02469000  1
  H  H269  1  0.34689000  0.55539000  0.07303000  1
  H  H270  1  0.47987000  0.42139000  0.02593000  1
  H  H271  1  0.42139000  0.47987000  0.07281000  1
  H  H272  1  0.68570000  0.14104000  0.30394000  1
  H  H273  1  0.14104000  0.68570000  0.86932000  1
  H  H274  1  0.68842000  0.13648000  0.86812000  1
  H  H275  1  0.13648000  0.68842000  0.30698000  1
  H  H276  1  0.78195000  0.04045000  0.21715000  1
  H  H277  1  0.04045000  0.78195000  0.96045000  1
  H  H278  1  0.78230000  0.03836000  0.96182000  1
  H  H279  1  0.03836000  0.78230000  0.21752000  1
  H  H280  1  0.78230000  0.96182000  0.21752000  1
  H  H281  1  0.96182000  0.78230000  0.03836000  1
  H  H282  1  0.78195000  0.96045000  0.04045000  1
  H  H283  1  0.96045000  0.78195000  0.21715000  1
  H  H284  1  0.62954000  0.09092000  0.35662000  1
  H  H285  1  0.09092000  0.62954000  0.92292000  1
  H  H286  1  0.63164000  0.08702000  0.92236000  1
  H  H287  1  0.08702000  0.63164000  0.35898000  1
  H  H288  1  0.55539000  0.07303000  0.34689000  1
  H  H289  1  0.07303000  0.55539000  0.02469000  1
  H  H290  1  0.64103000  0.98541000  0.94043000  1
  H  H291  1  0.98541000  0.64103000  0.43313000  1
  H  H292  1  0.94043000  0.64103000  0.98541000  1
  H  H293  1  0.64103000  0.94043000  0.43313000  1
  H  H294  1  0.55539000  0.02469000  0.07303000  1
  H  H295  1  0.02469000  0.55539000  0.34689000  1
  H  H296  1  0.68842000  0.86812000  0.30698000  1
  H  H297  1  0.86812000  0.68842000  0.13648000  1
  H  H298  1  0.68570000  0.86932000  0.14104000  1
  H  H299  1  0.86932000  0.68570000  0.30394000  1
  H  H300  1  0.63164000  0.92236000  0.35898000  1
  H  H301  1  0.92236000  0.63164000  0.08702000  1
  H  H302  1  0.47987000  0.07281000  0.42139000  1
  H  H303  1  0.07281000  0.47987000  0.02593000  1
  H  H304  1  0.62954000  0.92292000  0.09092000  1
  H  H305  1  0.92292000  0.62954000  0.35662000  1
  H  H306  1  0.56588000  0.98606000  0.94002000  1
  H  H307  1  0.98606000  0.56588000  0.50804000  1
  H  H308  1  0.94002000  0.56588000  0.98606000  1
  H  H309  1  0.56588000  0.94002000  0.50804000  1
  H  H310  1  0.47987000  0.02593000  0.07281000  1
  H  H311  1  0.02593000  0.47987000  0.42139000  1
  H  H312  1  0.07281000  0.42139000  0.47987000  1
  H  H313  1  0.42139000  0.07281000  0.02593000  1
  H  H314  1  0.98606000  0.50804000  0.94002000  1
  H  H315  1  0.50804000  0.98606000  0.56588000  1
  H  H316  1  0.94002000  0.50804000  0.56588000  1
  H  H317  1  0.50804000  0.94002000  0.98606000  1
  H  H318  1  0.09092000  0.35662000  0.62954000  1
  H  H319  1  0.35662000  0.09092000  0.92292000  1
  H  H320  1  0.42139000  0.02593000  0.47987000  1
  H  H321  1  0.02593000  0.42139000  0.07281000  1
  H  H322  1  0.35898000  0.08702000  0.63164000  1
  H  H323  1  0.08702000  0.35898000  0.92236000  1
  H  H324  1  0.14104000  0.30394000  0.68570000  1
  H  H325  1  0.30394000  0.14104000  0.86932000  1
  H  H326  1  0.30698000  0.13648000  0.68842000  1
  H  H327  1  0.13648000  0.30698000  0.86812000  1
  H  H328  1  0.07303000  0.34689000  0.55539000  1
  H  H329  1  0.34689000  0.07303000  0.02469000  1
  H  H330  1  0.98541000  0.43313000  0.94043000  1
  H  H331  1  0.43313000  0.98541000  0.64103000  1
  H  H332  1  0.94043000  0.43313000  0.64103000  1
  H  H333  1  0.43313000  0.94043000  0.98541000  1
  H  H334  1  0.34689000  0.02469000  0.55539000  1
  H  H335  1  0.02469000  0.34689000  0.07303000  1
  H  H336  1  0.92236000  0.35898000  0.63164000  1
  H  H337  1  0.35898000  0.92236000  0.08702000  1
  H  H338  1  0.35662000  0.92292000  0.62954000  1
  H  H339  1  0.92292000  0.35662000  0.09092000  1
  H  H340  1  0.04045000  0.21715000  0.78195000  1
  H  H341  1  0.21715000  0.04045000  0.96045000  1
  H  H342  1  0.21752000  0.03836000  0.78230000  1
  H  H343  1  0.03836000  0.21752000  0.96182000  1
  H  H344  1  0.96182000  0.21752000  0.78230000  1
  H  H345  1  0.21752000  0.96182000  0.03836000  1
  H  H346  1  0.21715000  0.96045000  0.78195000  1
  H  H347  1  0.96045000  0.21715000  0.04045000  1
  H  H348  1  0.86812000  0.30698000  0.68842000  1
  H  H349  1  0.30698000  0.86812000  0.13648000  1
  H  H350  1  0.30394000  0.86932000  0.68570000  1
  H  H351  1  0.86932000  0.30394000  0.14104000  1
  H  H352  1  0.02593000  0.07281000  0.47987000  1
  H  H353  1  0.07281000  0.02593000  0.42139000  1
  H  H354  1  0.02469000  0.07303000  0.55539000  1
  H  H355  1  0.07303000  0.02469000  0.34689000  1
  H  H356  1  0.64103000  0.43313000  0.98541000  1
  H  H357  1  0.43313000  0.64103000  0.94043000  1
  H  H358  1  0.56588000  0.50804000  0.98606000  1
  H  H359  1  0.50804000  0.56588000  0.94002000  1
  H  H360  1  0.92292000  0.09092000  0.62954000  1
  H  H361  1  0.09092000  0.92292000  0.35662000  1
  H  H362  1  0.86932000  0.14104000  0.68570000  1
  H  H363  1  0.14104000  0.86932000  0.30394000  1
  H  H364  1  0.08702000  0.92236000  0.63164000  1
  H  H365  1  0.92236000  0.08702000  0.35898000  1
  H  H366  1  0.13648000  0.86812000  0.68842000  1
  H  H367  1  0.86812000  0.13648000  0.30698000  1
  H  H368  1  0.96045000  0.04045000  0.78195000  1
  H  H369  1  0.04045000  0.96045000  0.21715000  1
  H  H370  1  0.03836000  0.96182000  0.78230000  1
  H  H371  1  0.96182000  0.03836000  0.21752000  1
  N  N372  1  0.64886000  0.34086000  0.00430000  1
  N  N373  1  0.34086000  0.64886000  0.00598000  1
  N  N374  1  0.64886000  0.00598000  0.34086000  1
  N  N375  1  0.00598000  0.64886000  0.00430000  1
  N  N376  1  0.64886000  0.00430000  0.00598000  1
  N  N377  1  0.00430000  0.64886000  0.34086000  1
  N  N378  1  0.00598000  0.34086000  0.64886000  1
  N  N379  1  0.34086000  0.00598000  0.00430000  1
  N  N380  1  0.34086000  0.00430000  0.64886000  1
  N  N381  1  0.00430000  0.34086000  0.00598000  1
  N  N382  1  0.00430000  0.00598000  0.64886000  1
  N  N383  1  0.00598000  0.00430000  0.34086000  1
  O  O384  1  0.10896000  0.89008000  0.81150000  1
  O  O385  1  0.81053000  0.18851000  0.88941000  1
  O  O386  1  0.18851000  0.81053000  0.11155000  1
  O  O387  1  0.89008000  0.10896000  0.18946000  1
  O  O388  1  0.15666000  0.84218000  0.76426000  1
  O  O389  1  0.76310000  0.23574000  0.84172000  1
  O  O390  1  0.23574000  0.76310000  0.15944000  1
  O  O391  1  0.84218000  0.15666000  0.23690000  1
  O  O392  1  0.76310000  0.15944000  0.23574000  1
  O  O393  1  0.15944000  0.76310000  0.84172000  1
  O  O394  1  0.81053000  0.11155000  0.18851000  1
  O  O395  1  0.11155000  0.81053000  0.88941000  1
  O  O396  1  0.76426000  0.15666000  0.84218000  1
  O  O397  1  0.15666000  0.76426000  0.23690000  1
  O  O398  1  0.81150000  0.10896000  0.89008000  1
  O  O399  1  0.10896000  0.81150000  0.18946000  1
  O  O400  1  0.89008000  0.81150000  0.10896000  1
  O  O401  1  0.81150000  0.89008000  0.18946000  1
  O  O402  1  0.81053000  0.88941000  0.11155000  1
  O  O403  1  0.88941000  0.81053000  0.18851000  1
  O  O404  1  0.84218000  0.76426000  0.15666000  1
  O  O405  1  0.76426000  0.84218000  0.23690000  1
  O  O406  1  0.76310000  0.84172000  0.15944000  1
  O  O407  1  0.84172000  0.76310000  0.23574000  1
  O  O408  1  0.15944000  0.23574000  0.76310000  1
  O  O409  1  0.23574000  0.15944000  0.84172000  1
  O  O410  1  0.15666000  0.23690000  0.84218000  1
  O  O411  1  0.23690000  0.15666000  0.76426000  1
  O  O412  1  0.11155000  0.18851000  0.81053000  1
  O  O413  1  0.18851000  0.11155000  0.88941000  1
  O  O414  1  0.10896000  0.18946000  0.89008000  1
  O  O415  1  0.18946000  0.10896000  0.81150000  1
  O  O416  1  0.89008000  0.18946000  0.81150000  1
  O  O417  1  0.18946000  0.89008000  0.10896000  1
  O  O418  1  0.84218000  0.23690000  0.76426000  1
  O  O419  1  0.23690000  0.84218000  0.15666000  1
  O  O420  1  0.18851000  0.88941000  0.81053000  1
  O  O421  1  0.88941000  0.18851000  0.11155000  1
  O  O422  1  0.23574000  0.84172000  0.76310000  1
  O  O423  1  0.84172000  0.23574000  0.15944000  1
  O  O424  1  0.76426000  0.23690000  0.15666000  1
  O  O425  1  0.84172000  0.15944000  0.76310000  1
  O  O426  1  0.15944000  0.84172000  0.23574000  1
  O  O427  1  0.23690000  0.76426000  0.84218000  1
  O  O428  1  0.81150000  0.18946000  0.10896000  1
  O  O429  1  0.88941000  0.11155000  0.81053000  1
  O  O430  1  0.11155000  0.88941000  0.18851000  1
  O  O431  1  0.18946000  0.81150000  0.89008000  1
