# generated using pymatgen
data_Zn2H12C16N2O7
_symmetry_space_group_name_H-M   'P 1'
_cell_length_a   8.54159185
_cell_length_b   13.66880000
_cell_length_c   18.22500206
_cell_angle_alpha   88.27019848
_cell_angle_beta   84.45591610
_cell_angle_gamma   71.79315000
_symmetry_Int_Tables_number   1
_chemical_formula_structural   Zn2H12C16N2O7
_chemical_formula_sum   'Zn8 H48 C64 N8 O28'
_cell_volume   2011.84360638
_cell_formula_units_Z   4
loop_
 _symmetry_equiv_pos_site_id
 _symmetry_equiv_pos_as_xyz
  1  'x, y, z'
loop_
 _atom_site_type_symbol
 _atom_site_label
 _atom_site_symmetry_multiplicity
 _atom_site_fract_x
 _atom_site_fract_y
 _atom_site_fract_z
 _atom_site_occupancy
  Zn  Zn0  1  0.13449000  0.17560000  0.49164000  1
  Zn  Zn1  1  0.62293000  0.05336000  0.02887000  1
  Zn  Zn2  1  0.17629000  0.94664000  0.52887000  1
  Zn  Zn3  1  0.81009000  0.82440000  0.99164000  1
  Zn  Zn4  1  0.18991000  0.17560000  0.00836000  1
  Zn  Zn5  1  0.82371000  0.05336000  0.47113000  1
  Zn  Zn6  1  0.37707000  0.94664000  0.97113000  1
  Zn  Zn7  1  0.86551000  0.82440000  0.50836000  1
  H  H8  1  0.24620000  0.80880000  0.88730000  1
  H  H9  1  0.03830000  0.11320000  0.78630000  1
  H  H10  1  0.63960000  0.38300000  0.90810000  1
  H  H11  1  0.98610000  0.34320000  0.59510000  1
  H  H12  1  0.64990000  0.65400000  0.60510000  1
  H  H13  1  0.78880000  0.49940000  0.60580000  1
  H  H14  1  0.27280000  0.48780000  0.10680000  1
  H  H15  1  0.44500000  0.80880000  0.61270000  1
  H  H16  1  0.87060000  0.15040000  0.83660000  1
  H  H17  1  0.65150000  0.88680000  0.28630000  1
  H  H18  1  0.19610000  0.65400000  0.89490000  1
  H  H19  1  0.58070000  0.23220000  0.92350000  1
  H  H20  1  0.33260000  0.11620000  0.25930000  1
  H  H21  1  0.52100000  0.84960000  0.33660000  1
  H  H22  1  0.22520000  0.33440000  0.11270000  1
  H  H23  1  0.94040000  0.33440000  0.38730000  1
  H  H24  1  0.73940000  0.48780000  0.39320000  1
  H  H25  1  0.94398000  0.09334000  0.57729000  1
  H  H26  1  0.21180000  0.49940000  0.89420000  1
  H  H27  1  0.94880000  0.88380000  0.75930000  1
  H  H28  1  0.82930000  0.65680000  0.09510000  1
  H  H29  1  0.52260000  0.61700000  0.40810000  1
  H  H30  1  0.53732000  0.90666000  0.07729000  1
  H  H31  1  0.31290000  0.76780000  0.42350000  1
  H  H32  1  0.68710000  0.23220000  0.57650000  1
  H  H33  1  0.46268000  0.09334000  0.92271000  1
  H  H34  1  0.47740000  0.38300000  0.59190000  1
  H  H35  1  0.17070000  0.34320000  0.90490000  1
  H  H36  1  0.05120000  0.11620000  0.24070000  1
  H  H37  1  0.78820000  0.50060000  0.10580000  1
  H  H38  1  0.05602000  0.90666000  0.42271000  1
  H  H39  1  0.26060000  0.51220000  0.60680000  1
  H  H40  1  0.05960000  0.66560000  0.61270000  1
  H  H41  1  0.77480000  0.66560000  0.88730000  1
  H  H42  1  0.47900000  0.15040000  0.66340000  1
  H  H43  1  0.66740000  0.88380000  0.74070000  1
  H  H44  1  0.41930000  0.76780000  0.07650000  1
  H  H45  1  0.80390000  0.34600000  0.10510000  1
  H  H46  1  0.34850000  0.11320000  0.71370000  1
  H  H47  1  0.12940000  0.84960000  0.16340000  1
  H  H48  1  0.55500000  0.19120000  0.38730000  1
  H  H49  1  0.72720000  0.51220000  0.89320000  1
  H  H50  1  0.21120000  0.50060000  0.39420000  1
  H  H51  1  0.35010000  0.34600000  0.39490000  1
  H  H52  1  0.01390000  0.65680000  0.40490000  1
  H  H53  1  0.36040000  0.61700000  0.09190000  1
  H  H54  1  0.96170000  0.88680000  0.21370000  1
  H  H55  1  0.75380000  0.19120000  0.11270000  1
  C  C56  1  0.27299000  0.76842000  0.92908000  1
  C  C57  1  0.66288000  0.90944000  0.39737000  1
  C  C58  1  0.66096000  0.34668000  0.95187000  1
  C  C59  1  0.92768000  0.90944000  0.10263000  1
  C  C60  1  0.97629000  0.09642000  0.82962000  1
  C  C61  1  0.27584000  0.61372000  0.99394000  1
  C  C62  1  0.93620000  0.37320000  0.55329000  1
  C  C63  1  0.24134000  0.67512000  0.93356000  1
  C  C64  1  0.81783000  0.46714000  0.56001000  1
  C  C65  1  0.62840000  0.25480000  0.96069000  1
  C  C66  1  0.58354000  0.67512000  0.56644000  1
  C  C67  1  0.57271000  0.90358000  0.32962000  1
  C  C68  1  0.45859000  0.76842000  0.57092000  1
  C  C69  1  0.25000000  0.46040000  0.06449000  1
  C  C70  1  0.44096000  0.00668000  0.31809000  1
  C  C71  1  0.94764000  0.99332000  0.81809000  1
  C  C72  1  0.24389000  0.51422000  0.99966000  1
  C  C73  1  0.74189000  0.51422000  0.50034000  1
  C  C74  1  0.31948000  0.04544000  0.38618000  1
  C  C75  1  0.61044000  0.61372000  0.50606000  1
  C  C76  1  0.41347000  0.05206000  0.25763000  1
  C  C77  1  0.90875000  0.36810000  0.43243000  1
  C  C78  1  0.86492000  0.95456000  0.88618000  1
  C  C79  1  0.49818000  0.01364000  0.18115000  1
  C  C80  1  0.78960000  0.46040000  0.43551000  1
  C  C81  1  0.01182000  0.98636000  0.68115000  1
  C  C82  1  0.96553000  0.94794000  0.75763000  1
  C  C83  1  0.22315000  0.36810000  0.06757000  1
  C  C84  1  0.21503000  0.46714000  0.93999000  1
  C  C85  1  0.50764000  0.65332000  0.45187000  1
  C  C86  1  0.38320000  0.74520000  0.46069000  1
  C  C87  1  0.19060000  0.37320000  0.94671000  1
  C  C88  1  0.80940000  0.62680000  0.05329000  1
  C  C89  1  0.61680000  0.25480000  0.53931000  1
  C  C90  1  0.49236000  0.34668000  0.54813000  1
  C  C91  1  0.78497000  0.53286000  0.06001000  1
  C  C92  1  0.77685000  0.63190000  0.93243000  1
  C  C93  1  0.03447000  0.05206000  0.24237000  1
  C  C94  1  0.98818000  0.01364000  0.31885000  1
  C  C95  1  0.21040000  0.53960000  0.56449000  1
  C  C96  1  0.50182000  0.98636000  0.81885000  1
  C  C97  1  0.13508000  0.04544000  0.11382000  1
  C  C98  1  0.09125000  0.63190000  0.56757000  1
  C  C99  1  0.58653000  0.94794000  0.74237000  1
  C  C100  1  0.38956000  0.38628000  0.49394000  1
  C  C101  1  0.68052000  0.95456000  0.61382000  1
  C  C102  1  0.25811000  0.48578000  0.49966000  1
  C  C103  1  0.75611000  0.48578000  0.00034000  1
  C  C104  1  0.05236000  0.00668000  0.18191000  1
  C  C105  1  0.55904000  0.99332000  0.68191000  1
  C  C106  1  0.75000000  0.53960000  0.93551000  1
  C  C107  1  0.54141000  0.23158000  0.42908000  1
  C  C108  1  0.42729000  0.09642000  0.67038000  1
  C  C109  1  0.41646000  0.32488000  0.43356000  1
  C  C110  1  0.37160000  0.74520000  0.03931000  1
  C  C111  1  0.18217000  0.53286000  0.43999000  1
  C  C112  1  0.75866000  0.32488000  0.06644000  1
  C  C113  1  0.06380000  0.62680000  0.44671000  1
  C  C114  1  0.72416000  0.38628000  0.00606000  1
  C  C115  1  0.02371000  0.90358000  0.17038000  1
  C  C116  1  0.07232000  0.09056000  0.89737000  1
  C  C117  1  0.33904000  0.65332000  0.04813000  1
  C  C118  1  0.33712000  0.09056000  0.60263000  1
  C  C119  1  0.72701000  0.23158000  0.07092000  1
  N  N120  1  0.66233000  0.19752000  0.02005000  1
  N  N121  1  0.98263000  0.32328000  0.49090000  1
  N  N122  1  0.35985000  0.80248000  0.52005000  1
  N  N123  1  0.19409000  0.32328000  0.00910000  1
  N  N124  1  0.80591000  0.67672000  0.99090000  1
  N  N125  1  0.64015000  0.19752000  0.47995000  1
  N  N126  1  0.01737000  0.67672000  0.50910000  1
  N  N127  1  0.33767000  0.80248000  0.97995000  1
  O  O128  1  0.73438000  0.82356000  0.42670000  1
  O  O129  1  0.33650000  0.00780000  0.58071000  1
  O  O130  1  0.84430000  0.99220000  0.08071000  1
  O  O131  1  0.94206000  0.82356000  0.07330000  1
  O  O132  1  0.25218000  0.14196000  0.39463000  1
  O  O133  1  0.77418000  0.02102000  0.92684000  1
  O  O134  1  0.49827000  0.08882000  0.13411000  1
  O  O135  1  0.95976000  0.08868000  0.67178000  1
  O  O136  1  0.29520000  0.97898000  0.42684000  1
  O  O137  1  0.89414000  0.85804000  0.89463000  1
  O  O138  1  0.08709000  0.91118000  0.63411000  1
  O  O139  1  0.54844000  0.91132000  0.17178000  1
  O  O140  1  0.99562000  0.09334000  0.52565000  1
  O  O141  1  0.58896000  0.90666000  0.02565000  1
  O  O142  1  0.41104000  0.09334000  0.97435000  1
  O  O143  1  0.00438000  0.90666000  0.47435000  1
  O  O144  1  0.45156000  0.08868000  0.82822000  1
  O  O145  1  0.91291000  0.08882000  0.36589000  1
  O  O146  1  0.10586000  0.14196000  0.10537000  1
  O  O147  1  0.70480000  0.02102000  0.57316000  1
  O  O148  1  0.04024000  0.91132000  0.32822000  1
  O  O149  1  0.50173000  0.91118000  0.86589000  1
  O  O150  1  0.22582000  0.97898000  0.07316000  1
  O  O151  1  0.74782000  0.85804000  0.60537000  1
  O  O152  1  0.05794000  0.17644000  0.92670000  1
  O  O153  1  0.15570000  0.00780000  0.91929000  1
  O  O154  1  0.66350000  0.99220000  0.41929000  1
  O  O155  1  0.26562000  0.17644000  0.57330000  1
