# generated using pymatgen
data_Ce2H8C8SO16
_symmetry_space_group_name_H-M   'P 1'
_cell_length_a   6.15500000
_cell_length_b   7.64860000
_cell_length_c   22.01900000
_cell_angle_alpha   90.00000000
_cell_angle_beta   90.00000000
_cell_angle_gamma   90.00000000
_symmetry_Int_Tables_number   1
_chemical_formula_structural   Ce2H8C8SO16
_chemical_formula_sum   'Ce4 H16 C16 S2 O32'
_cell_volume   1036.59139153
_cell_formula_units_Z   2
loop_
 _symmetry_equiv_pos_site_id
 _symmetry_equiv_pos_as_xyz
  1  'x, y, z'
loop_
 _atom_site_type_symbol
 _atom_site_label
 _atom_site_symmetry_multiplicity
 _atom_site_fract_x
 _atom_site_fract_y
 _atom_site_fract_z
 _atom_site_occupancy
  Ce  Ce0  1  0.43928000  0.02062000  0.35422000  1
  Ce  Ce1  1  0.56072000  0.47938000  0.85422000  1
  Ce  Ce2  1  0.56072000  0.52062000  0.14578000  1
  Ce  Ce3  1  0.43928000  0.97938000  0.64578000  1
  H  H4  1  0.04810000  0.00350000  0.78810000  1
  H  H5  1  0.14240000  0.09180000  0.11740000  1
  H  H6  1  0.47120000  0.14080000  0.11470000  1
  H  H7  1  0.30540000  0.23650000  0.25640000  1
  H  H8  1  0.69460000  0.26350000  0.75640000  1
  H  H9  1  0.52880000  0.35920000  0.61470000  1
  H  H10  1  0.85760000  0.40820000  0.61740000  1
  H  H11  1  0.95190000  0.49650000  0.28810000  1
  H  H12  1  0.95190000  0.50350000  0.71190000  1
  H  H13  1  0.85760000  0.59180000  0.38260000  1
  H  H14  1  0.52880000  0.64080000  0.38530000  1
  H  H15  1  0.69460000  0.73650000  0.24360000  1
  H  H16  1  0.30540000  0.76350000  0.74360000  1
  H  H17  1  0.47120000  0.85920000  0.88530000  1
  H  H18  1  0.14240000  0.90820000  0.88260000  1
  H  H19  1  0.04810000  0.99650000  0.21190000  1
  C  C20  1  0.18980000  0.05460000  0.20977000  1
  C  C21  1  0.36780000  0.08670000  0.79219000  1
  C  C22  1  0.19910000  0.16210000  0.15106000  1
  C  C23  1  0.93470000  0.17010000  0.65665000  1
  C  C24  1  0.06530000  0.32990000  0.15665000  1
  C  C25  1  0.80090000  0.33790000  0.65106000  1
  C  C26  1  0.63220000  0.41330000  0.29219000  1
  C  C27  1  0.81020000  0.44540000  0.70977000  1
  C  C28  1  0.81020000  0.55460000  0.29023000  1
  C  C29  1  0.63220000  0.58670000  0.70781000  1
  C  C30  1  0.80090000  0.66210000  0.34894000  1
  C  C31  1  0.06530000  0.67010000  0.84335000  1
  C  C32  1  0.93470000  0.82990000  0.34335000  1
  C  C33  1  0.19910000  0.83790000  0.84894000  1
  C  C34  1  0.36780000  0.91330000  0.20781000  1
  C  C35  1  0.18980000  0.94540000  0.79023000  1
  S  S36  1  0.44680000  0.00000000  0.50000000  1
  S  S37  1  0.55320000  0.50000000  0.00000000  1
  O  O38  1  0.83510000  0.02740000  0.65420000  1
  O  O39  1  0.50630000  0.08600000  0.75043000  1
  O  O40  1  0.31300000  0.10130000  0.54281000  1
  O  O41  1  0.58150000  0.11530000  0.46179000  1
  O  O42  1  0.21730000  0.15840000  0.26318000  1
  O  O43  1  0.13680000  0.18610000  0.66324000  1
  O  O44  1  0.36780000  0.19270000  0.83551000  1
  O  O45  1  0.41660000  0.21220000  0.13791000  1
  O  O46  1  0.58340000  0.28780000  0.63791000  1
  O  O47  1  0.63220000  0.30730000  0.33551000  1
  O  O48  1  0.86320000  0.31390000  0.16324000  1
  O  O49  1  0.78270000  0.34160000  0.76318000  1
  O  O50  1  0.41850000  0.38470000  0.96179000  1
  O  O51  1  0.68700000  0.39870000  0.04281000  1
  O  O52  1  0.49370000  0.41400000  0.25043000  1
  O  O53  1  0.16490000  0.47260000  0.15420000  1
  O  O54  1  0.16490000  0.52740000  0.84580000  1
  O  O55  1  0.49370000  0.58600000  0.74957000  1
  O  O56  1  0.68700000  0.60130000  0.95719000  1
  O  O57  1  0.41850000  0.61530000  0.03821000  1
  O  O58  1  0.78270000  0.65840000  0.23682000  1
  O  O59  1  0.86320000  0.68610000  0.83676000  1
  O  O60  1  0.63220000  0.69270000  0.66449000  1
  O  O61  1  0.58340000  0.71220000  0.36209000  1
  O  O62  1  0.41660000  0.78780000  0.86209000  1
  O  O63  1  0.36780000  0.80730000  0.16449000  1
  O  O64  1  0.13680000  0.81390000  0.33676000  1
  O  O65  1  0.21730000  0.84160000  0.73682000  1
  O  O66  1  0.58150000  0.88470000  0.53821000  1
  O  O67  1  0.31300000  0.89870000  0.45719000  1
  O  O68  1  0.50630000  0.91400000  0.24957000  1
  O  O69  1  0.83510000  0.97260000  0.34580000  1
