# generated using pymatgen
data_Cd3H16(C12N13)2
_symmetry_space_group_name_H-M   'P 1'
_cell_length_a   10.97400000
_cell_length_b   14.10600000
_cell_length_c   22.66900000
_cell_angle_alpha   90.00000000
_cell_angle_beta   90.00000000
_cell_angle_gamma   96.63700000
_symmetry_Int_Tables_number   1
_chemical_formula_structural   Cd3H16(C12N13)2
_chemical_formula_sum   'Cd6 H32 C48 N52'
_cell_volume   3485.62695536
_cell_formula_units_Z   2
loop_
 _symmetry_equiv_pos_site_id
 _symmetry_equiv_pos_as_xyz
  1  'x, y, z'
loop_
 _atom_site_type_symbol
 _atom_site_label
 _atom_site_symmetry_multiplicity
 _atom_site_fract_x
 _atom_site_fract_y
 _atom_site_fract_z
 _atom_site_occupancy
  Cd  Cd0  1  0.00000000  0.00000000  0.00000000  1
  Cd  Cd1  1  1.00000000  0.50000000  0.50000000  1
  Cd  Cd2  1  0.86819000  0.27806000  0.42677000  1
  Cd  Cd3  1  0.86819000  0.77806000  0.07323000  1
  Cd  Cd4  1  0.13181000  0.22194000  0.92677000  1
  Cd  Cd5  1  0.13181000  0.72194000  0.57323000  1
  H  H6  1  0.95690000  0.72090000  0.29310000  1
  H  H7  1  0.95690000  0.22090000  0.20690000  1
  H  H8  1  0.95070000  0.29890000  0.29370000  1
  H  H9  1  0.95070000  0.79890000  0.20630000  1
  H  H10  1  0.80200000  0.07180000  0.37160000  1
  H  H11  1  0.80200000  0.57180000  0.12840000  1
  H  H12  1  0.79980000  0.98540000  0.28650000  1
  H  H13  1  0.79980000  0.48540000  0.21350000  1
  H  H14  1  0.67760000  0.41670000  0.45560000  1
  H  H15  1  0.67760000  0.91670000  0.04440000  1
  H  H16  1  0.61370000  0.31710000  0.89360000  1
  H  H17  1  0.61370000  0.81710000  0.60640000  1
  H  H18  1  0.58930000  0.16280000  0.39320000  1
  H  H19  1  0.58930000  0.66280000  0.10680000  1
  H  H20  1  0.52160000  0.05750000  0.95950000  1
  H  H21  1  0.52160000  0.55750000  0.54050000  1
  H  H22  1  0.47840000  0.44250000  0.45950000  1
  H  H23  1  0.47840000  0.94250000  0.04050000  1
  H  H24  1  0.41070000  0.33720000  0.89320000  1
  H  H25  1  0.41070000  0.83720000  0.60680000  1
  H  H26  1  0.38630000  0.18290000  0.39360000  1
  H  H27  1  0.38630000  0.68290000  0.10640000  1
  H  H28  1  0.32240000  0.08330000  0.95560000  1
  H  H29  1  0.32240000  0.58330000  0.54440000  1
  H  H30  1  0.20020000  0.51460000  0.78650000  1
  H  H31  1  0.20020000  0.01460000  0.71350000  1
  H  H32  1  0.19800000  0.42820000  0.87160000  1
  H  H33  1  0.19800000  0.92820000  0.62840000  1
  H  H34  1  0.04930000  0.20110000  0.79370000  1
  H  H35  1  0.04930000  0.70110000  0.70630000  1
  H  H36  1  0.04310000  0.77910000  0.79310000  1
  H  H37  1  0.04310000  0.27910000  0.70690000  1
  C  C38  1  0.92390000  0.68870000  0.26000000  1
  C  C39  1  0.92390000  0.18870000  0.24000000  1
  C  C40  1  0.92030000  0.23460000  0.29230000  1
  C  C41  1  0.92030000  0.73460000  0.20770000  1
  C  C42  1  0.88260000  0.54070000  0.31860000  1
  C  C43  1  0.88260000  0.04070000  0.18140000  1
  C  C44  1  0.87820000  0.59390000  0.26360000  1
  C  C45  1  0.87820000  0.09390000  0.23640000  1
  C  C46  1  0.83330000  0.10230000  0.33760000  1
  C  C47  1  0.83330000  0.60230000  0.16240000  1
  C  C48  1  0.83160000  0.04950000  0.28680000  1
  C  C49  1  0.83160000  0.54950000  0.21320000  1
  C  C50  1  0.72030000  0.16930000  0.93380000  1
  C  C51  1  0.72030000  0.66930000  0.56620000  1
  C  C52  1  0.61810000  0.36830000  0.44350000  1
  C  C53  1  0.61810000  0.86830000  0.05650000  1
  C  C54  1  0.59230000  0.18440000  0.92810000  1
  C  C55  1  0.59230000  0.68440000  0.57190000  1
  C  C56  1  0.56640000  0.22030000  0.40680000  1
  C  C57  1  0.56640000  0.72030000  0.09320000  1
  C  C58  1  0.55590000  0.26860000  0.90720000  1
  C  C59  1  0.55590000  0.76860000  0.59280000  1
  C  C60  1  0.50130000  0.11580000  0.94580000  1
  C  C61  1  0.50130000  0.61580000  0.55420000  1
  C  C62  1  0.49870000  0.38420000  0.44580000  1
  C  C63  1  0.49870000  0.88420000  0.05420000  1
  C  C64  1  0.44410000  0.23140000  0.40720000  1
  C  C65  1  0.44410000  0.73140000  0.09280000  1
  C  C66  1  0.43360000  0.27970000  0.90680000  1
  C  C67  1  0.43360000  0.77970000  0.59320000  1
  C  C68  1  0.40770000  0.31560000  0.42810000  1
  C  C69  1  0.40770000  0.81560000  0.07190000  1
  C  C70  1  0.38190000  0.13170000  0.94350000  1
  C  C71  1  0.38190000  0.63170000  0.55650000  1
  C  C72  1  0.27970000  0.33070000  0.43380000  1
  C  C73  1  0.27970000  0.83070000  0.06620000  1
  C  C74  1  0.16840000  0.45050000  0.78680000  1
  C  C75  1  0.16840000  0.95050000  0.71320000  1
  C  C76  1  0.16670000  0.39770000  0.83760000  1
  C  C77  1  0.16670000  0.89770000  0.66240000  1
  C  C78  1  0.12180000  0.90610000  0.76360000  1
  C  C79  1  0.12180000  0.40610000  0.73640000  1
  C  C80  1  0.11740000  0.95930000  0.81860000  1
  C  C81  1  0.11740000  0.45930000  0.68140000  1
  C  C82  1  0.07970000  0.26540000  0.79230000  1
  C  C83  1  0.07970000  0.76540000  0.70770000  1
  C  C84  1  0.07610000  0.81130000  0.76000000  1
  C  C85  1  0.07610000  0.31130000  0.74000000  1
  N  N86  1  0.92100000  0.58110000  0.36920000  1
  N  N87  1  0.92100000  0.08110000  0.13080000  1
  N  N88  1  0.91620000  0.50860000  0.40680000  1
  N  N89  1  0.91620000  0.00860000  0.09320000  1
  N  N90  1  0.91280000  0.18470000  0.93070000  1
  N  N91  1  0.91280000  0.68470000  0.56930000  1
  N  N92  1  0.87810000  0.42850000  0.37880000  1
  N  N93  1  0.87810000  0.92850000  0.12120000  1
  N  N94  1  0.87620000  0.19370000  0.34160000  1
  N  N95  1  0.87620000  0.69370000  0.15840000  1
  N  N96  1  0.87450000  0.10240000  0.95700000  1
  N  N97  1  0.87450000  0.60240000  0.54300000  1
  N  N98  1  0.87120000  0.86150000  0.98720000  1
  N  N99  1  0.87120000  0.36150000  0.51280000  1
  N  N100  1  0.85570000  0.44690000  0.32270000  1
  N  N101  1  0.85570000  0.94690000  0.17730000  1
  N  N102  1  0.81710000  0.22770000  0.91520000  1
  N  N103  1  0.81710000  0.72770000  0.58480000  1
  N  N104  1  0.81400000  0.83740000  0.94500000  1
  N  N105  1  0.81400000  0.33740000  0.55500000  1
  N  N106  1  0.75990000  0.81230000  0.90500000  1
  N  N107  1  0.75990000  0.31230000  0.59500000  1
  N  N108  1  0.75320000  0.09100000  0.96020000  1
  N  N109  1  0.75320000  0.59100000  0.53980000  1
  N  N110  1  0.65400000  0.28640000  0.42470000  1
  N  N111  1  0.65400000  0.78640000  0.07530000  1
  N  N112  1  0.34600000  0.21360000  0.92470000  1
  N  N113  1  0.34600000  0.71360000  0.57530000  1
  N  N114  1  0.24680000  0.40900000  0.46020000  1
  N  N115  1  0.24680000  0.90900000  0.03980000  1
  N  N116  1  0.24010000  0.68770000  0.40500000  1
  N  N117  1  0.24010000  0.18770000  0.09500000  1
  N  N118  1  0.18600000  0.66260000  0.44500000  1
  N  N119  1  0.18600000  0.16260000  0.05500000  1
  N  N120  1  0.18290000  0.27230000  0.41520000  1
  N  N121  1  0.18290000  0.77230000  0.08480000  1
  N  N122  1  0.14430000  0.05310000  0.82270000  1
  N  N123  1  0.14430000  0.55310000  0.67730000  1
  N  N124  1  0.12880000  0.63850000  0.48720000  1
  N  N125  1  0.12880000  0.13850000  0.01280000  1
  N  N126  1  0.12550000  0.39760000  0.45700000  1
  N  N127  1  0.12550000  0.89760000  0.04300000  1
  N  N128  1  0.12380000  0.30630000  0.84160000  1
  N  N129  1  0.12380000  0.80630000  0.65840000  1
  N  N130  1  0.12190000  0.07150000  0.87880000  1
  N  N131  1  0.12190000  0.57150000  0.62120000  1
  N  N132  1  0.08720000  0.31530000  0.43070000  1
  N  N133  1  0.08720000  0.81530000  0.06930000  1
  N  N134  1  0.08380000  0.99140000  0.90680000  1
  N  N135  1  0.08380000  0.49140000  0.59320000  1
  N  N136  1  0.07900000  0.91890000  0.86920000  1
  N  N137  1  0.07900000  0.41890000  0.63080000  1
