# generated using pymatgen
data_Mn3H10C22(NO2)4
_symmetry_space_group_name_H-M   'P 1'
_cell_length_a   14.23240000
_cell_length_b   15.47770000
_cell_length_c   15.47776538
_cell_angle_alpha   111.04350276
_cell_angle_beta   107.84945962
_cell_angle_gamma   107.84900000
_symmetry_Int_Tables_number   1
_chemical_formula_structural   Mn3H10C22(NO2)4
_chemical_formula_sum   'Mn9 H30 C66 N12 O24'
_cell_volume   2675.31366177
_cell_formula_units_Z   3
loop_
 _symmetry_equiv_pos_site_id
 _symmetry_equiv_pos_as_xyz
  1  'x, y, z'
loop_
 _atom_site_type_symbol
 _atom_site_label
 _atom_site_symmetry_multiplicity
 _atom_site_fract_x
 _atom_site_fract_y
 _atom_site_fract_z
 _atom_site_occupancy
  Mn  Mn0  1  0.50000000  0.50000000  0.50000000  1
  Mn  Mn1  1  0.00000000  0.50000000  0.00000000  1
  Mn  Mn2  1  0.73247000  0.24303000  0.51787000  1
  Mn  Mn3  1  0.51056000  0.72516000  0.24303000  1
  Mn  Mn4  1  0.21460000  0.48213000  0.72516000  1
  Mn  Mn5  1  0.00000000  0.00000000  0.50000000  1
  Mn  Mn6  1  0.78540000  0.51787000  0.27484000  1
  Mn  Mn7  1  0.48944000  0.27484000  0.75697000  1
  Mn  Mn8  1  0.26753000  0.75697000  0.48213000  1
  H  H9  1  0.49470000  0.08140000  0.45940000  1
  H  H10  1  0.82230000  0.05230000  0.76300000  1
  H  H11  1  0.68440000  0.93610000  0.59120000  1
  H  H12  1  0.21540000  0.84170000  0.11890000  1
  H  H13  1  0.23000000  0.28930000  0.05230000  1
  H  H14  1  0.37370000  0.27720000  0.15830000  1
  H  H15  1  0.39450000  0.85990000  0.16820000  1
  H  H16  1  0.94070000  0.76300000  0.71070000  1
  H  H17  1  0.90680000  0.59120000  0.65510000  1
  H  H18  1  0.25170000  0.34490000  0.93610000  1
  H  H19  1  0.09650000  0.88110000  0.72280000  1
  H  H20  1  0.53460000  0.30830000  0.14010000  1
  H  H21  1  0.03530000  0.54060000  0.62200000  1
  H  H22  1  0.77370000  0.16820000  0.30830000  1
  H  H23  1  0.41330000  0.37800000  0.91860000  1
  H  H24  1  0.58670000  0.62200000  0.08140000  1
  H  H25  1  0.22630000  0.83180000  0.69170000  1
  H  H26  1  0.96470000  0.45940000  0.37800000  1
  H  H27  1  0.46540000  0.69170000  0.85990000  1
  H  H28  1  0.90350000  0.11890000  0.27720000  1
  H  H29  1  0.74830000  0.65510000  0.06390000  1
  H  H30  1  0.09320000  0.40880000  0.34490000  1
  H  H31  1  0.05930000  0.23700000  0.28930000  1
  H  H32  1  0.60550000  0.14010000  0.83180000  1
  H  H33  1  0.62630000  0.72280000  0.84170000  1
  H  H34  1  0.77000000  0.71070000  0.94770000  1
  H  H35  1  0.78460000  0.15830000  0.88110000  1
  H  H36  1  0.31560000  0.06390000  0.40880000  1
  H  H37  1  0.17770000  0.94770000  0.23700000  1
  H  H38  1  0.50530000  0.91860000  0.54060000  1
  C  C39  1  0.75128000  0.04719000  0.74225000  1
  C  C40  1  0.66835000  0.97667000  0.63967000  1
  C  C41  1  0.43899000  0.03347000  0.39087000  1
  C  C42  1  0.27178000  0.89075000  0.18709000  1
  C  C43  1  0.57741000  0.33071000  0.46682000  1
  C  C44  1  0.26193000  0.63939000  0.13331000  1
  C  C45  1  0.46311000  0.97185000  0.31893000  1
  C  C46  1  0.37912000  0.90093000  0.21699000  1
  C  C47  1  0.57607000  0.98117000  0.34960000  1
  C  C48  1  0.65019000  0.35854000  0.41940000  1
  C  C49  1  0.29126000  0.62404000  0.04693000  1
  C  C50  1  0.11059000  0.53318000  0.86389000  1
  C  C51  1  0.29591000  0.30494000  0.04719000  1
  C  C52  1  0.62254000  0.49392000  0.36061000  1
  C  C53  1  0.38103000  0.29634000  0.10925000  1
  C  C54  1  0.66722000  0.42289000  0.37596000  1
  C  C55  1  0.23079000  0.58060000  0.93914000  1
  C  C56  1  0.99097000  0.74225000  0.69506000  1
  C  C57  1  0.97132000  0.63967000  0.66300000  1
  C  C58  1  0.30832000  0.33700000  0.97667000  1
  C  C59  1  0.75567000  0.04693000  0.42289000  1
  C  C60  1  0.70835000  0.93914000  0.35854000  1
  C  C61  1  0.87138000  0.13331000  0.49392000  1
  C  C62  1  0.47819000  0.31606000  0.09907000  1
  C  C63  1  0.08469000  0.81291000  0.70366000  1
  C  C64  1  0.77353000  0.34960000  0.36843000  1
  C  C65  1  0.04812000  0.60913000  0.64260000  1
  C  C66  1  0.75330000  0.86389000  0.33071000  1
  C  C67  1  0.40510000  0.63157000  0.98117000  1
  C  C68  1  0.40552000  0.35740000  0.96653000  1
  C  C69  1  0.49126000  0.34708000  0.02815000  1
  C  C70  1  0.16213000  0.78301000  0.68394000  1
  C  C71  1  0.14418000  0.68107000  0.65292000  1
  C  C72  1  0.85582000  0.31893000  0.34708000  1
  C  C73  1  0.83787000  0.21699000  0.31606000  1
  C  C74  1  0.50874000  0.65292000  0.97185000  1
  C  C75  1  0.59448000  0.64260000  0.03347000  1
  C  C76  1  0.59490000  0.36843000  0.01883000  1
  C  C77  1  0.24670000  0.13611000  0.66929000  1
  C  C78  1  0.95188000  0.39087000  0.35740000  1
  C  C79  1  0.22647000  0.65040000  0.63157000  1
  C  C80  1  0.91531000  0.18709000  0.29634000  1
  C  C81  1  0.52181000  0.68394000  0.90093000  1
  C  C82  1  0.12862000  0.86669000  0.50608000  1
  C  C83  1  0.29165000  0.06086000  0.64146000  1
  C  C84  1  0.24433000  0.95307000  0.57711000  1
  C  C85  1  0.69168000  0.66300000  0.02333000  1
  C  C86  1  0.02868000  0.36033000  0.33700000  1
  C  C87  1  0.00903000  0.25775000  0.30494000  1
  C  C88  1  0.76921000  0.41940000  0.06086000  1
  C  C89  1  0.33278000  0.57711000  0.62404000  1
  C  C90  1  0.61897000  0.70366000  0.89075000  1
  C  C91  1  0.37746000  0.50608000  0.63939000  1
  C  C92  1  0.70409000  0.69506000  0.95281000  1
  C  C93  1  0.88941000  0.46682000  0.13611000  1
  C  C94  1  0.70874000  0.37596000  0.95307000  1
  C  C95  1  0.34981000  0.64146000  0.58060000  1
  C  C96  1  0.42393000  0.01883000  0.65040000  1
  C  C97  1  0.62088000  0.09907000  0.78301000  1
  C  C98  1  0.53689000  0.02815000  0.68107000  1
  C  C99  1  0.73807000  0.36061000  0.86669000  1
  C  C100  1  0.42259000  0.66929000  0.53318000  1
  C  C101  1  0.72822000  0.10925000  0.81291000  1
  C  C102  1  0.56101000  0.96653000  0.60913000  1
  C  C103  1  0.33165000  0.02333000  0.36033000  1
  C  C104  1  0.24872000  0.95281000  0.25775000  1
  N  N105  1  0.67032000  0.07262000  0.41631000  1
  N  N106  1  0.59440000  0.89828000  0.31318000  1
  N  N107  1  0.71878000  0.31318000  0.41490000  1
  N  N108  1  0.40230000  0.65631000  0.07262000  1
  N  N109  1  0.74599000  0.41631000  0.34369000  1
  N  N110  1  0.30388000  0.58510000  0.89828000  1
  N  N111  1  0.69612000  0.41490000  0.10172000  1
  N  N112  1  0.25401000  0.58369000  0.65631000  1
  N  N113  1  0.59770000  0.34369000  0.92738000  1
  N  N114  1  0.28122000  0.68682000  0.58510000  1
  N  N115  1  0.40560000  0.10172000  0.68682000  1
  N  N116  1  0.32968000  0.92738000  0.58369000  1
  O  O117  1  0.49921000  0.35381000  0.45773000  1
  O  O118  1  0.16448000  0.61051000  0.11977000  1
  O  O119  1  0.59713000  0.28123000  0.51285000  1
  O  O120  1  0.34381000  0.68564000  0.22416000  1
  O  O121  1  0.04148000  0.54227000  0.89608000  1
  O  O122  1  0.55397000  0.50926000  0.38949000  1
  O  O123  1  0.08428000  0.48715000  0.76838000  1
  O  O124  1  0.88035000  0.22416000  0.53852000  1
  O  O125  1  0.65817000  0.53852000  0.31436000  1
  O  O126  1  0.68410000  0.76838000  0.28123000  1
  O  O127  1  0.95529000  0.11977000  0.50926000  1
  O  O128  1  0.14540000  0.10392000  0.64619000  1
  O  O129  1  0.85460000  0.89608000  0.35381000  1
  O  O130  1  0.04471000  0.88023000  0.49074000  1
  O  O131  1  0.31590000  0.23162000  0.71877000  1
  O  O132  1  0.34183000  0.46148000  0.68564000  1
  O  O133  1  0.11965000  0.77584000  0.46148000  1
  O  O134  1  0.91572000  0.51285000  0.23162000  1
  O  O135  1  0.44603000  0.49074000  0.61051000  1
  O  O136  1  0.95852000  0.45773000  0.10392000  1
  O  O137  1  0.65619000  0.31436000  0.77584000  1
  O  O138  1  0.40287000  0.71877000  0.48715000  1
  O  O139  1  0.83552000  0.38949000  0.88023000  1
  O  O140  1  0.50079000  0.64619000  0.54227000  1
