# generated using pymatgen
data_Cu3H18(C11N4)2
_symmetry_space_group_name_H-M   'P 1'
_cell_length_a   12.66840000
_cell_length_b   16.27170000
_cell_length_c   17.60210000
_cell_angle_alpha   112.52300000
_cell_angle_beta   90.00000000
_cell_angle_gamma   90.00000000
_symmetry_Int_Tables_number   1
_chemical_formula_structural   Cu3H18(C11N4)2
_chemical_formula_sum   'Cu12 H72 C88 N32'
_cell_volume   3351.67787343
_cell_formula_units_Z   4
loop_
 _symmetry_equiv_pos_site_id
 _symmetry_equiv_pos_as_xyz
  1  'x, y, z'
loop_
 _atom_site_type_symbol
 _atom_site_label
 _atom_site_symmetry_multiplicity
 _atom_site_fract_x
 _atom_site_fract_y
 _atom_site_fract_z
 _atom_site_occupancy
  Cu  Cu0  1  0.88711000  0.91992000  0.55857000  1
  Cu  Cu1  1  0.61289000  0.91992000  0.05857000  1
  Cu  Cu2  1  0.39591000  0.61366000  0.86708000  1
  Cu  Cu3  1  0.10409000  0.61366000  0.36708000  1
  Cu  Cu4  1  0.32801000  0.52528000  0.95094000  1
  Cu  Cu5  1  0.17199000  0.52528000  0.45094000  1
  Cu  Cu6  1  0.82801000  0.47472000  0.54906000  1
  Cu  Cu7  1  0.67199000  0.47472000  0.04906000  1
  Cu  Cu8  1  0.89591000  0.38634000  0.63292000  1
  Cu  Cu9  1  0.60409000  0.38634000  0.13292000  1
  Cu  Cu10  1  0.38711000  0.08008000  0.94143000  1
  Cu  Cu11  1  0.11289000  0.08008000  0.44143000  1
  H  H12  1  0.77080000  0.99900000  0.46580000  1
  H  H13  1  0.72920000  0.99900000  0.96580000  1
  H  H14  1  0.48930000  0.90850000  0.86990000  1
  H  H15  1  0.01070000  0.90850000  0.36990000  1
  H  H16  1  0.25070000  0.86580000  0.54400000  1
  H  H17  1  0.24930000  0.86580000  0.04400000  1
  H  H18  1  0.94420000  0.86550000  0.68990000  1
  H  H19  1  0.55580000  0.86550000  0.18990000  1
  H  H20  1  0.48110000  0.77240000  0.87890000  1
  H  H21  1  0.01890000  0.77240000  0.37890000  1
  H  H22  1  0.30750000  0.76500000  0.08040000  1
  H  H23  1  0.19250000  0.76500000  0.58040000  1
  H  H24  1  0.31390000  0.75780000  0.19980000  1
  H  H25  1  0.18610000  0.75780000  0.69980000  1
  H  H26  1  0.25430000  0.74280000  0.81370000  1
  H  H27  1  0.24570000  0.74280000  0.31370000  1
  H  H28  1  0.95810000  0.73900000  0.71490000  1
  H  H29  1  0.54190000  0.73900000  0.21490000  1
  H  H30  1  0.86120000  0.73230000  0.46330000  1
  H  H31  1  0.63880000  0.73230000  0.96330000  1
  H  H32  1  0.88660000  0.62650000  0.30560000  1
  H  H33  1  0.61340000  0.62650000  0.80560000  1
  H  H34  1  0.36620000  0.62220000  0.43080000  1
  H  H35  1  0.13380000  0.62220000  0.93080000  1
  H  H36  1  0.48410000  0.62100000  0.33220000  1
  H  H37  1  0.01590000  0.62100000  0.83220000  1
  H  H38  1  0.76870000  0.61610000  0.20330000  1
  H  H39  1  0.73130000  0.61610000  0.70330000  1
  H  H40  1  0.47900000  0.61410000  0.20030000  1
  H  H41  1  0.02100000  0.61410000  0.70030000  1
  H  H42  1  0.87410000  0.60100000  0.48040000  1
  H  H43  1  0.62590000  0.60100000  0.98040000  1
  H  H44  1  0.28780000  0.51050000  0.56870000  1
  H  H45  1  0.21220000  0.51050000  0.06870000  1
  H  H46  1  0.35170000  0.50420000  0.68740000  1
  H  H47  1  0.14830000  0.50420000  0.18740000  1
  H  H48  1  0.85170000  0.49580000  0.81260000  1
  H  H49  1  0.64830000  0.49580000  0.31260000  1
  H  H50  1  0.78780000  0.48950000  0.93130000  1
  H  H51  1  0.71220000  0.48950000  0.43130000  1
  H  H52  1  0.37410000  0.39900000  0.01960000  1
  H  H53  1  0.12590000  0.39900000  0.51960000  1
  H  H54  1  0.97900000  0.38590000  0.29970000  1
  H  H55  1  0.52100000  0.38590000  0.79970000  1
  H  H56  1  0.26870000  0.38390000  0.29670000  1
  H  H57  1  0.23130000  0.38390000  0.79670000  1
  H  H58  1  0.98410000  0.37900000  0.16780000  1
  H  H59  1  0.51590000  0.37900000  0.66780000  1
  H  H60  1  0.86620000  0.37780000  0.06920000  1
  H  H61  1  0.63380000  0.37780000  0.56920000  1
  H  H62  1  0.38660000  0.37350000  0.19440000  1
  H  H63  1  0.11340000  0.37350000  0.69440000  1
  H  H64  1  0.36120000  0.26770000  0.03670000  1
  H  H65  1  0.13880000  0.26770000  0.53670000  1
  H  H66  1  0.45810000  0.26100000  0.78510000  1
  H  H67  1  0.04190000  0.26100000  0.28510000  1
  H  H68  1  0.75430000  0.25720000  0.68630000  1
  H  H69  1  0.74570000  0.25720000  0.18630000  1
  H  H70  1  0.81390000  0.24220000  0.30020000  1
  H  H71  1  0.68610000  0.24220000  0.80020000  1
  H  H72  1  0.80750000  0.23500000  0.41960000  1
  H  H73  1  0.69250000  0.23500000  0.91960000  1
  H  H74  1  0.98110000  0.22760000  0.62110000  1
  H  H75  1  0.51890000  0.22760000  0.12110000  1
  H  H76  1  0.44420000  0.13450000  0.81010000  1
  H  H77  1  0.05580000  0.13450000  0.31010000  1
  H  H78  1  0.75070000  0.13420000  0.95600000  1
  H  H79  1  0.74930000  0.13420000  0.45600000  1
  H  H80  1  0.98930000  0.09150000  0.63010000  1
  H  H81  1  0.51070000  0.09150000  0.13010000  1
  H  H82  1  0.27080000  0.00100000  0.03420000  1
  H  H83  1  0.22920000  0.00100000  0.53420000  1
  C  C84  1  0.31250000  0.95370000  0.00140000  1
  C  C85  1  0.18750000  0.95370000  0.50140000  1
  C  C86  1  0.44090000  0.90020000  0.90610000  1
  C  C87  1  0.05910000  0.90020000  0.40610000  1
  C  C88  1  0.30060000  0.87270000  0.00910000  1
  C  C89  1  0.19940000  0.87270000  0.50910000  1
  C  C90  1  0.43650000  0.81767000  0.91124000  1
  C  C91  1  0.06350000  0.81767000  0.41124000  1
  C  C92  1  0.92940000  0.81140000  0.64730000  1
  C  C93  1  0.57060000  0.81140000  0.14730000  1
  C  C94  1  0.36550000  0.80200000  0.96462000  1
  C  C95  1  0.13450000  0.80200000  0.46462000  1
  C  C96  1  0.93860000  0.73559000  0.66289000  1
  C  C97  1  0.56140000  0.73559000  0.16289000  1
  C  C98  1  0.88100000  0.73350000  0.51460000  1
  C  C99  1  0.61900000  0.73350000  0.01460000  1
  C  C100  1  0.32260000  0.71255000  0.03589000  1
  C  C101  1  0.17740000  0.71255000  0.53589000  1
  C  C102  1  0.27960000  0.70551000  0.19493000  1
  C  C103  1  0.22040000  0.70551000  0.69493000  1
  C  C104  1  0.26210000  0.69561000  0.76330000  1
  C  C105  1  0.23790000  0.69561000  0.26330000  1
  C  C106  1  0.88870000  0.65402000  0.52430000  1
  C  C107  1  0.61130000  0.65402000  0.02430000  1
  C  C108  1  0.91850000  0.65272000  0.59994000  1
  C  C109  1  0.58150000  0.65272000  0.09994000  1
  C  C110  1  0.26930000  0.63553000  0.11806000  1
  C  C111  1  0.23070000  0.63553000  0.61806000  1
  C  C112  1  0.88290000  0.57451000  0.25867000  1
  C  C113  1  0.61710000  0.57451000  0.75867000  1
  C  C114  1  0.36970000  0.57210000  0.38215000  1
  C  C115  1  0.13030000  0.57210000  0.88215000  1
  C  C116  1  0.44090000  0.57194000  0.32317000  1
  C  C117  1  0.05910000  0.57194000  0.82317000  1
  C  C118  1  0.81280000  0.56800000  0.19635000  1
  C  C119  1  0.68720000  0.56800000  0.69635000  1
  C  C120  1  0.98030000  0.56544000  0.66862000  1
  C  C121  1  0.51970000  0.56544000  0.16862000  1
  C  C122  1  0.28040000  0.55963000  0.61776000  1
  C  C123  1  0.21960000  0.55963000  0.11776000  1
  C  C124  1  0.31920000  0.55639000  0.68995000  1
  C  C125  1  0.18080000  0.55639000  0.18995000  1
  C  C126  1  0.94770000  0.50264000  0.25057000  1
  C  C127  1  0.55230000  0.50264000  0.75057000  1
  C  C128  1  0.44770000  0.49736000  0.24943000  1
  C  C129  1  0.05230000  0.49736000  0.74943000  1
  C  C130  1  0.81920000  0.44361000  0.81005000  1
  C  C131  1  0.68080000  0.44361000  0.31005000  1
  C  C132  1  0.78040000  0.44037000  0.88224000  1
  C  C133  1  0.71960000  0.44037000  0.38224000  1
  C  C134  1  0.48030000  0.43456000  0.83138000  1
  C  C135  1  0.01970000  0.43456000  0.33138000  1
  C  C136  1  0.31280000  0.43200000  0.30365000  1
  C  C137  1  0.18720000  0.43200000  0.80365000  1
  C  C138  1  0.94090000  0.42806000  0.17683000  1
  C  C139  1  0.55910000  0.42806000  0.67683000  1
  C  C140  1  0.86970000  0.42790000  0.11785000  1
  C  C141  1  0.63030000  0.42790000  0.61785000  1
  C  C142  1  0.38290000  0.42549000  0.24133000  1
  C  C143  1  0.11710000  0.42549000  0.74133000  1
  C  C144  1  0.76930000  0.36447000  0.38194000  1
  C  C145  1  0.73070000  0.36447000  0.88194000  1
  C  C146  1  0.41850000  0.34728000  0.90006000  1
  C  C147  1  0.08150000  0.34728000  0.40006000  1
  C  C148  1  0.38870000  0.34598000  0.97570000  1
  C  C149  1  0.11130000  0.34598000  0.47570000  1
  C  C150  1  0.76210000  0.30439000  0.73670000  1
  C  C151  1  0.73790000  0.30439000  0.23670000  1
  C  C152  1  0.77960000  0.29449000  0.30507000  1
  C  C153  1  0.72040000  0.29449000  0.80507000  1
  C  C154  1  0.82260000  0.28745000  0.46411000  1
  C  C155  1  0.67740000  0.28745000  0.96411000  1
  C  C156  1  0.38100000  0.26650000  0.98540000  1
  C  C157  1  0.11900000  0.26650000  0.48540000  1
  C  C158  1  0.43860000  0.26441000  0.83711000  1
  C  C159  1  0.06140000  0.26441000  0.33711000  1
  C  C160  1  0.86550000  0.19800000  0.53538000  1
  C  C161  1  0.63450000  0.19800000  0.03538000  1
  C  C162  1  0.42940000  0.18860000  0.85270000  1
  C  C163  1  0.07060000  0.18860000  0.35270000  1
  C  C164  1  0.93650000  0.18233000  0.58876000  1
  C  C165  1  0.56350000  0.18233000  0.08876000  1
  C  C166  1  0.80060000  0.12730000  0.49090000  1
  C  C167  1  0.69940000  0.12730000  0.99090000  1
  C  C168  1  0.94090000  0.09980000  0.59390000  1
  C  C169  1  0.55910000  0.09980000  0.09390000  1
  C  C170  1  0.81250000  0.04630000  0.49860000  1
  C  C171  1  0.68750000  0.04630000  0.99860000  1
  N  N172  1  0.38070000  0.96771000  0.94932000  1
  N  N173  1  0.11930000  0.96771000  0.44932000  1
  N  N174  1  0.90030000  0.81278000  0.57450000  1
  N  N175  1  0.59970000  0.81278000  0.07450000  1
  N  N176  1  0.36000000  0.71772000  0.96713000  1
  N  N177  1  0.14000000  0.71772000  0.46713000  1
  N  N178  1  0.30622000  0.63614000  0.04330000  1
  N  N179  1  0.19378000  0.63614000  0.54330000  1
  N  N180  1  0.31290000  0.62327000  0.76267000  1
  N  N181  1  0.18710000  0.62327000  0.26267000  1
  N  N182  1  0.92105000  0.57214000  0.60963000  1
  N  N183  1  0.57895000  0.57214000  0.10963000  1
  N  N184  1  0.48450000  0.50737000  0.81539000  1
  N  N185  1  0.01550000  0.50737000  0.31539000  1
  N  N186  1  0.30520000  0.50401000  0.37338000  1
  N  N187  1  0.19480000  0.50401000  0.87338000  1
  N  N188  1  0.80520000  0.49599000  0.12662000  1
  N  N189  1  0.69480000  0.49599000  0.62662000  1
  N  N190  1  0.98450000  0.49263000  0.68461000  1
  N  N191  1  0.51550000  0.49263000  0.18461000  1
  N  N192  1  0.42105000  0.42786000  0.89037000  1
  N  N193  1  0.07895000  0.42786000  0.39037000  1
  N  N194  1  0.81290000  0.37673000  0.73733000  1
  N  N195  1  0.68710000  0.37673000  0.23733000  1
  N  N196  1  0.80622000  0.36386000  0.45670000  1
  N  N197  1  0.69378000  0.36386000  0.95670000  1
  N  N198  1  0.86000000  0.28228000  0.53287000  1
  N  N199  1  0.64000000  0.28228000  0.03287000  1
  N  N200  1  0.40030000  0.18722000  0.92550000  1
  N  N201  1  0.09970000  0.18722000  0.42550000  1
  N  N202  1  0.88070000  0.03229000  0.55068000  1
  N  N203  1  0.61930000  0.03229000  0.05068000  1
