# generated using pymatgen
data_CoH3(CO2)3
_symmetry_space_group_name_H-M   'P 1'
_cell_length_a   7.30160000
_cell_length_b   7.94350000
_cell_length_c   13.83390000
_cell_angle_alpha   90.00000000
_cell_angle_beta   90.00000000
_cell_angle_gamma   90.00000000
_symmetry_Int_Tables_number   1
_chemical_formula_structural   CoH3(CO2)3
_chemical_formula_sum   'Co4 H12 C12 O24'
_cell_volume   802.36979128
_cell_formula_units_Z   4
loop_
 _symmetry_equiv_pos_site_id
 _symmetry_equiv_pos_as_xyz
  1  'x, y, z'
loop_
 _atom_site_type_symbol
 _atom_site_label
 _atom_site_symmetry_multiplicity
 _atom_site_fract_x
 _atom_site_fract_y
 _atom_site_fract_z
 _atom_site_occupancy
  Co  Co0  1  0.75969000  0.21919000  0.33541000  1
  Co  Co1  1  0.25969000  0.28081000  0.66459000  1
  Co  Co2  1  0.24031000  0.71919000  0.16459000  1
  Co  Co3  1  0.74031000  0.78081000  0.83541000  1
  H  H4  1  0.00880000  0.00380000  0.22680000  1
  H  H5  1  0.01980000  0.06580000  0.79560000  1
  H  H6  1  0.99470000  0.18930000  0.50820000  1
  H  H7  1  0.49470000  0.31070000  0.49180000  1
  H  H8  1  0.51980000  0.43420000  0.20440000  1
  H  H9  1  0.50880000  0.49620000  0.77320000  1
  H  H10  1  0.99120000  0.50380000  0.27320000  1
  H  H11  1  0.98020000  0.56580000  0.70440000  1
  H  H12  1  0.00530000  0.68930000  0.99180000  1
  H  H13  1  0.50530000  0.81070000  0.00820000  1
  H  H14  1  0.48020000  0.93420000  0.29560000  1
  H  H15  1  0.49120000  0.99620000  0.72680000  1
  C  C16  1  0.00130000  0.01560000  0.73405000  1
  C  C17  1  0.49100000  0.05720000  0.78588000  1
  C  C18  1  0.50940000  0.19410000  0.50501000  1
  C  C19  1  0.00940000  0.30590000  0.49499000  1
  C  C20  1  0.99100000  0.44280000  0.21412000  1
  C  C21  1  0.50130000  0.48440000  0.26595000  1
  C  C22  1  0.99870000  0.51560000  0.76595000  1
  C  C23  1  0.50900000  0.55720000  0.71412000  1
  C  C24  1  0.49060000  0.69410000  0.99499000  1
  C  C25  1  0.99060000  0.80590000  0.00501000  1
  C  C26  1  0.00900000  0.94280000  0.28588000  1
  C  C27  1  0.49870000  0.98440000  0.23405000  1
  O  O28  1  0.92169000  0.00341000  0.35550000  1
  O  O29  1  0.08861000  0.07429000  0.66384000  1
  O  O30  1  0.60839000  0.10451000  0.22848000  1
  O  O31  1  0.61960000  0.11168000  0.45314000  1
  O  O32  1  0.41822000  0.13201000  0.57273000  1
  O  O33  1  0.40291000  0.19326000  0.78853000  1
  O  O34  1  0.90291000  0.30674000  0.21147000  1
  O  O35  1  0.91822000  0.36799000  0.42727000  1
  O  O36  1  0.11960000  0.38832000  0.54686000  1
  O  O37  1  0.10839000  0.39549000  0.77152000  1
  O  O38  1  0.58861000  0.42571000  0.33616000  1
  O  O39  1  0.42169000  0.49659000  0.64450000  1
  O  O40  1  0.07831000  0.50341000  0.14450000  1
  O  O41  1  0.91139000  0.57429000  0.83616000  1
  O  O42  1  0.39161000  0.60451000  0.27152000  1
  O  O43  1  0.38040000  0.61168000  0.04686000  1
  O  O44  1  0.58178000  0.63201000  0.92727000  1
  O  O45  1  0.59709000  0.69326000  0.71147000  1
  O  O46  1  0.09709000  0.80674000  0.28853000  1
  O  O47  1  0.08178000  0.86799000  0.07273000  1
  O  O48  1  0.88040000  0.88832000  0.95314000  1
  O  O49  1  0.89161000  0.89549000  0.72848000  1
  O  O50  1  0.41139000  0.92571000  0.16384000  1
  O  O51  1  0.57831000  0.99659000  0.85550000  1
